# DIS package for  MODFLOW-NWT, generated by Flopy.
         4        68        93         1         4         2
  0  0  0  0
OPEN/CLOSE               external/delr.ref               1  (93E15.6) -1 delr
OPEN/CLOSE               external/delc.ref               1  (68E15.6) -1 delc
OPEN/CLOSE                external/top.dat               1     (FREE) -1 model_top
OPEN/CLOSE              external/botm0.dat               1     (FREE) -1 botm layer 1
OPEN/CLOSE              external/botm1.dat               1     (FREE) -1 botm layer 2
OPEN/CLOSE              external/botm2.dat               1     (FREE) -1 botm layer 3
OPEN/CLOSE              external/botm3.dat               1     (FREE) -1 botm layer 4
      1.000000             1  1.000000  SS
