# UPW package for  MODFLOW-NWT, generated by Flopy.
        53    -1E+04         0         0 
         1         1         1         1
         0         0         0         0
   1.000000E+00   1.000000E+00   1.000000E+00   1.000000E+00
         1         1         1         1
         0         0         0         0
OPEN/CLOSE                external/hk0.dat               1     (FREE) -1 hk layer 1                    
OPEN/CLOSE               external/vka0.dat               1     (FREE) -1 vani1                         
OPEN/CLOSE                external/hk1.dat               1     (FREE) -1 hk layer 2                    
OPEN/CLOSE               external/vka1.dat               1     (FREE) -1 vani2                         
OPEN/CLOSE                external/hk2.dat               1     (FREE) -1 hk layer 3                    
OPEN/CLOSE               external/vka2.dat               1     (FREE) -1 vani3                         
OPEN/CLOSE                external/hk3.dat               1     (FREE) -1 hk layer 4                    
OPEN/CLOSE               external/vka3.dat               1     (FREE) -1 vani4                         
