# RCH package for  MODFLOW-NWT, generated by Flopy.
         3        53
         1        -1 # Stress period 1
OPEN/CLOSE              external/finf0.dat               1     (FREE) -1 rech_1
