# Name file for MODFLOW-NWT, generated by Flopy version 3.2.12.
#xll:558700; yll:411500; rotation:0; proj4_str:epsg:3070; units:meters; lenuni:2;  ;start_datetime:1-1-1970
LIST               2  pfl.list
DIS               11  pfl.dis 
BAS6              13  pfl.bas 
UPW               31  pfl.upw 
RCH               19  pfl.rch 
OC                14  pfl.oc 
WEL               20  pfl.wel 
NWT               32  pfl.nwt 
CHD               24  pfl.chd 
DATA(BINARY)      53  pfl.cbc REPLACE
DATA(BINARY)      51  pfl.hds REPLACE
