# WEL package for  MODFLOW-NWT, generated by Flopy.
        70        53  SPECIFY 0.01
        70         0 # stress period 1
         open/close external/WEL_0000.dat
