# CHD package for  MODFLOW-NWT, generated by Flopy.
      1272
      1272         0 # stress period 1
         open/close external/CHD_0000.dat
