BEGIN options
END options

BEGIN timing
  TDIS6  mfsim.tdis
END timing

BEGIN models
  gwf6  shellmound.nam  shellmound
END models

BEGIN exchanges
END exchanges

BEGIN solutiongroup  1
  ims6  mfsim.ims  shellmound
END solutiongroup  1
