BEGIN options
  TIME_UNITS  days
  START_DATE_TIME  1998-04-01
END options

BEGIN dimensions
  NPER  19
END dimensions

BEGIN perioddata
       1.00000000  1       1.00000000
    3287.00000000  10       1.50000000
     183.00000000  5       1.50000000
     183.00000000  5       1.50000000
     183.00000000  5       1.50000000
     182.00000000  5       1.50000000
     183.00000000  5       1.50000000
     182.00000000  5       1.50000000
     183.00000000  5       1.50000000
     182.00000000  5       1.50000000
     183.00000000  5       1.50000000
     183.00000000  5       1.50000000
     183.00000000  5       1.50000000
     182.00000000  5       1.50000000
     183.00000000  5       1.50000000
     182.00000000  5       1.50000000
     183.00000000  5       1.50000000
     182.00000000  5       1.50000000
     183.00000000  5       1.50000000
END perioddata

