BEGIN options
  SAVE_FLOWS
END options

BEGIN griddata
  iconvert
    CONSTANT  1
  ss  LAYERED
    OPEN/CLOSE  './external/ss0.dat'  FACTOR  1.0
    OPEN/CLOSE  './external/ss1.dat'  FACTOR  1.0
    OPEN/CLOSE  './external/ss2.dat'  FACTOR  1.0
    OPEN/CLOSE  './external/ss3.dat'  FACTOR  1.0
    OPEN/CLOSE  './external/ss4.dat'  FACTOR  1.0
    OPEN/CLOSE  './external/ss5.dat'  FACTOR  1.0
    OPEN/CLOSE  './external/ss6.dat'  FACTOR  1.0
    OPEN/CLOSE  './external/ss7.dat'  FACTOR  1.0
    OPEN/CLOSE  './external/ss8.dat'  FACTOR  1.0
    OPEN/CLOSE  './external/ss9.dat'  FACTOR  1.0
    OPEN/CLOSE  './external/ss10.dat'  FACTOR  1.0
    OPEN/CLOSE  './external/ss11.dat'  FACTOR  1.0
    OPEN/CLOSE  './external/ss12.dat'  FACTOR  1.0
  sy  LAYERED
    OPEN/CLOSE  './external/sy0.dat'  FACTOR  1.0
    OPEN/CLOSE  './external/sy1.dat'  FACTOR  1.0
    OPEN/CLOSE  './external/sy2.dat'  FACTOR  1.0
    OPEN/CLOSE  './external/sy3.dat'  FACTOR  1.0
    OPEN/CLOSE  './external/sy4.dat'  FACTOR  1.0
    OPEN/CLOSE  './external/sy5.dat'  FACTOR  1.0
    OPEN/CLOSE  './external/sy6.dat'  FACTOR  1.0
    OPEN/CLOSE  './external/sy7.dat'  FACTOR  1.0
    OPEN/CLOSE  './external/sy8.dat'  FACTOR  1.0
    OPEN/CLOSE  './external/sy9.dat'  FACTOR  1.0
    OPEN/CLOSE  './external/sy10.dat'  FACTOR  1.0
    OPEN/CLOSE  './external/sy11.dat'  FACTOR  1.0
    OPEN/CLOSE  './external/sy12.dat'  FACTOR  1.0
END griddata

BEGIN period  1
  STEADY-STATE
END period  1

BEGIN period  2
  TRANSIENT
END period  2

BEGIN period  3
  TRANSIENT
END period  3

BEGIN period  4
  TRANSIENT
END period  4

BEGIN period  5
  TRANSIENT
END period  5

BEGIN period  6
  TRANSIENT
END period  6

BEGIN period  7
  TRANSIENT
END period  7

BEGIN period  8
  TRANSIENT
END period  8

BEGIN period  9
  TRANSIENT
END period  9

BEGIN period  10
  TRANSIENT
END period  10

BEGIN period  11
  TRANSIENT
END period  11

BEGIN period  12
  TRANSIENT
END period  12

BEGIN period  13
  TRANSIENT
END period  13

BEGIN period  14
  TRANSIENT
END period  14

BEGIN period  15
  TRANSIENT
END period  15

BEGIN period  16
  TRANSIENT
END period  16

BEGIN period  17
  TRANSIENT
END period  17

BEGIN period  18
  TRANSIENT
END period  18

BEGIN period  19
  TRANSIENT
END period  19

