BEGIN options
  BUDGET  FILEOUT  shellmound.cbc
  HEAD  FILEOUT  shellmound.hds
END options

BEGIN period  1
  SAVE  head  last
  SAVE  budget  last
END period  1

