BEGIN griddata
  strt  LAYERED
    OPEN/CLOSE  './external/strt0.dat'  FACTOR  1.0
    OPEN/CLOSE  './external/strt1.dat'  FACTOR  1.0
    OPEN/CLOSE  './external/strt2.dat'  FACTOR  1.0
    OPEN/CLOSE  './external/strt3.dat'  FACTOR  1.0
    OPEN/CLOSE  './external/strt4.dat'  FACTOR  1.0
    OPEN/CLOSE  './external/strt5.dat'  FACTOR  1.0
    OPEN/CLOSE  './external/strt6.dat'  FACTOR  1.0
    OPEN/CLOSE  './external/strt7.dat'  FACTOR  1.0
    OPEN/CLOSE  './external/strt8.dat'  FACTOR  1.0
    OPEN/CLOSE  './external/strt9.dat'  FACTOR  1.0
    OPEN/CLOSE  './external/strt10.dat'  FACTOR  1.0
    OPEN/CLOSE  './external/strt11.dat'  FACTOR  1.0
    OPEN/CLOSE  './external/strt12.dat'  FACTOR  1.0
END griddata
