BEGIN options
  SAVE_FLOWS
END options

BEGIN griddata
  icelltype
    CONSTANT  1
  k  LAYERED
    OPEN/CLOSE  './external/k0.dat'  FACTOR  1.0
    OPEN/CLOSE  './external/k1.dat'  FACTOR  1.0
    OPEN/CLOSE  './external/k2.dat'  FACTOR  1.0
    OPEN/CLOSE  './external/k3.dat'  FACTOR  1.0
    OPEN/CLOSE  './external/k4.dat'  FACTOR  1.0
    OPEN/CLOSE  './external/k5.dat'  FACTOR  1.0
    OPEN/CLOSE  './external/k6.dat'  FACTOR  1.0
    OPEN/CLOSE  './external/k7.dat'  FACTOR  1.0
    OPEN/CLOSE  './external/k8.dat'  FACTOR  1.0
    OPEN/CLOSE  './external/k9.dat'  FACTOR  1.0
    OPEN/CLOSE  './external/k10.dat'  FACTOR  1.0
    OPEN/CLOSE  './external/k11.dat'  FACTOR  1.0
    OPEN/CLOSE  './external/k12.dat'  FACTOR  1.0
  k33  LAYERED
    OPEN/CLOSE  './external/k330.dat'  FACTOR  1.0
    OPEN/CLOSE  './external/k331.dat'  FACTOR  1.0
    OPEN/CLOSE  './external/k332.dat'  FACTOR  1.0
    OPEN/CLOSE  './external/k333.dat'  FACTOR  1.0
    OPEN/CLOSE  './external/k334.dat'  FACTOR  1.0
    OPEN/CLOSE  './external/k335.dat'  FACTOR  1.0
    OPEN/CLOSE  './external/k336.dat'  FACTOR  1.0
    OPEN/CLOSE  './external/k337.dat'  FACTOR  1.0
    OPEN/CLOSE  './external/k338.dat'  FACTOR  1.0
    OPEN/CLOSE  './external/k339.dat'  FACTOR  1.0
    OPEN/CLOSE  './external/k3310.dat'  FACTOR  1.0
    OPEN/CLOSE  './external/k3311.dat'  FACTOR  1.0
    OPEN/CLOSE  './external/k3312.dat'  FACTOR  1.0
END griddata

