BEGIN options
  BOUNDNAMES
  PRINT_INPUT
  PRINT_FLOWS
  SAVE_FLOWS
END options

BEGIN dimensions
  MAXBOUND  340
END dimensions

BEGIN period  2
  3 1 4    -384.91656000  97914
  3 1 5    -908.46800000  97915
  4 1 7   -1063.93850000  97916
  4 1 9   -1588.62930000  97917
  4 1 10   -2282.21310000  97918
  4 1 12   -1293.29920000  97919
  4 1 13   -1043.84030000  97920
  4 1 15   -1123.09290000  97921
  4 1 17   -2090.44020000  97922
  4 1 18    -801.07227000  97923
  4 1 20    -599.22410000  97924
  4 1 22    -593.68115000  97925
  4 1 23   -1167.13610000  97926
  4 1 25    -379.14682000  97927
  4 1 26   -2890.55100000  97928
  4 1 28    -549.96936000  97929
  4 1 30    -465.69583000  97930
  4 1 31    -383.10995000  97931
  4 1 33       0.00000000  97932
  4 1 34   -1070.28900000  97933
  3 3 4    -694.15200000  98308
  3 3 5   -1508.88110000  98309
  4 3 7   -1378.80360000  98310
  4 3 9   -1591.22340000  98311
  4 3 10   -1152.16800000  98312
  4 3 12    -758.94450000  98313
  4 3 13   -3006.58500000  98314
  4 3 15   -3573.93730000  98315
  4 3 17    -968.14150000  98316
  4 3 18   -2005.98130000  98317
  4 3 20   -1049.11670000  98318
  4 3 22     -13.31458100  98319
  9 3 23   -6759.64000000  98320
  4 3 25    -483.76498000  98321
  4 3 26    -596.57000000  98322
  4 3 28    -556.99805000  98323
  4 3 30       0.00000000  98324
  4 3 31    -676.55410000  98325
  4 3 33      -2.94495200  98326
  4 3 34    -900.89050000  98327
  3 4 4    -974.66810000  98702
  3 4 5   -1152.95010000  98703
  4 4 7    -936.13990000  98704
  4 4 9   -2615.03830000  98705
  4 4 10   -1668.19960000  98706
  4 4 12   -2498.55100000  98707
  4 4 13   -1324.31510000  98708
  4 4 15   -2624.08760000  98709
  4 4 17   -1929.95740000  98710
  4 4 18   -1732.96180000  98711
  9 4 20   -1365.64150000  98712
  4 4 22    -597.31195000  98713
  9 4 23   -1098.85310000  98714
  4 4 25     -38.72045500  98715
  4 4 26       0.00000000  98716
  4 4 28      -9.89390600  98717
  4 4 30    -199.80367000  98718
  4 4 31    -179.18333000  98719
  4 4 33      -8.43842000  98720
  4 4 34   -1690.59500000  98721
  3 6 4   -1218.72530000  99096
  3 6 5   -1272.36080000  99097
  4 6 7   -1454.46310000  99098
  4 6 9   -2324.22220000  99099
  4 6 10   -1813.91090000  99100
  4 6 12    -931.62695000  99101
  4 6 13   -3228.25510000  99102
  4 6 15   -4196.91900000  99103
  4 6 17   -1915.38940000  99104
  4 6 18   -1193.45870000  99105
  4 6 20   -1498.22170000  99106
  4 6 22    -709.08800000  99107
  4 6 23    -787.63635000  99108
  4 6 25    -688.93640000  99109
  4 6 26     -46.86438000  99110
  4 6 28    -560.27985000  99111
  4 6 30    -897.73956000  99112
  4 6 31    -625.46814000  99113
  4 6 33    -269.28754000  99114
  4 6 34       0.00000000  99115
  3 7 4   -1416.58420000  99490
  3 7 5   -2256.93240000  99491
  4 7 7   -1527.38300000  99492
  9 7 9   -1799.74980000  99493
  4 7 10    -540.91266000  99494
  4 7 12   -2735.10670000  99495
  4 7 13   -1355.64300000  99496
  4 7 15    -764.39630000  99497
  4 7 17   -1721.12890000  99498
  4 7 18   -1818.11520000  99499
  4 7 20   -1878.51120000  99500
  4 7 22   -1149.94950000  99501
  4 7 23    -788.82825000  99502
  4 7 25   -1808.67070000  99503
  4 7 26    -640.94617000  99504
  4 7 28    -669.39325000  99505
  4 7 30   -1048.94320000  99506
  4 7 31       0.00000000  99507
  4 7 33       0.00000000  99508
  4 7 34    -489.79648000  99509
  3 9 4    -765.79987000  99884
  3 9 5   -1284.50230000  99885
  4 9 7   -1915.74450000  99886
  4 9 9   -1824.38430000  99887
  4 9 10   -1656.36160000  99888
  4 9 12   -1712.19510000  99889
  4 9 13   -1834.63070000  99890
  4 9 15   -3851.94630000  99891
  4 9 17   -1935.09220000  99892
  4 9 18   -1271.26040000  99893
  4 9 20   -1077.97900000  99894
  4 9 22    -522.58170000  99895
  4 9 23    -670.12400000  99896
  4 9 25    -667.26715000  99897
  4 9 26    -549.33380000  99898
  4 9 28   -2387.58570000  99899
  4 9 30   -1103.25800000  99900
  4 9 31    -629.73160000  99901
  4 9 33       0.00000000  99902
  4 9 34    -465.27997000  99903
  3 11 4   -1721.00560000  100278
  3 11 5   -2591.01980000  100279
  4 11 7   -1061.24060000  100280
  4 11 9   -1419.53670000  100281
  4 11 10    -815.38110000  100282
  4 11 12   -2210.91300000  100283
  4 11 13    -770.26025000  100284
  4 11 15   -1828.44530000  100285
  4 11 17    -582.15620000  100286
  4 11 18   -1153.24990000  100287
  4 11 20   -1261.95730000  100288
  4 11 22    -747.28740000  100289
  4 11 23    -705.28410000  100290
  4 11 25   -1447.51590000  100291
  4 11 26   -1757.93250000  100292
  4 11 28   -1571.93040000  100293
  4 11 30    -611.34937000  100294
  4 11 31   -1076.53860000  100295
  4 11 33     -15.12119600  100296
  4 11 34       0.00000000  100297
  3 12 4   -2891.44210000  100672
  3 12 5    -694.35020000  100673
  4 12 7   -1610.31350000  100674
  4 12 9   -1464.61520000  100675
  4 12 10   -1398.57980000  100676
  4 12 12   -2206.44460000  100677
  4 12 13   -3672.60470000  100678
  4 12 15   -1114.34140000  100679
  4 12 17       0.00000000  100680
  4 12 18       0.00000000  100681
  4 12 20    -688.58075000  100682
  4 12 22    -680.72394000  100683
  9 12 23    -846.18360000  100684
  4 12 25   -1507.28590000  100685
  4 12 26   -1349.36570000  100686
  4 12 28    -668.93630000  100687
  4 12 30   -1978.01430000  100688
  4 12 31    -218.43616000  100689
  4 12 33     -61.81001300  100690
  4 12 34    -398.66614000  100691
  3 14 4   -1284.17290000  101066
  3 14 5   -1765.87770000  101067
  3 14 7    -897.61320000  101068
  4 14 9   -1026.02080000  101069
  4 14 10   -1132.81570000  101070
  4 14 12   -2512.80420000  101071
  4 14 13   -2238.06300000  101072
  4 14 15    -968.51120000  101073
  4 14 17       0.00000000  101074
  4 14 18       0.00000000  101075
  4 14 20    -465.83844000  101076
  4 14 22    -798.22000000  101077
  4 14 23   -1321.92400000  101078
  4 14 25    -974.51400000  101079
  4 14 26    -281.82623000  101080
  4 14 28     -40.77626000  101081
  4 14 30      -3.41501160  101082
  9 14 31    -963.46655000  101083
  9 14 33    -147.49553000  101084
  9 14 34    -254.25885000  101085
  3 15 4   -1171.43240000  101460
  3 15 5   -1720.82870000  101461
  3 15 7   -1110.51420000  101462
  4 15 9   -3773.42360000  101463
  4 15 10   -1525.07240000  101464
  4 15 12    -536.98140000  101465
  9 15 13   -1996.26510000  101466
  4 15 15   -1285.50060000  101467
  4 15 17   -1521.87490000  101468
  4 15 18    -729.51230000  101469
  4 15 20   -1844.68550000  101470
  4 15 22    -818.48230000  101471
  4 15 23   -1307.80790000  101472
  4 15 25    -829.91710000  101473
  4 15 26       0.00000000  101474
  4 15 28       0.00000000  101475
  4 15 30    -399.73746000  101476
  4 15 31    -625.15686000  101477
  4 15 33    -300.73056000  101478
  4 15 34   -1344.72170000  101479
  3 17 4   -1807.40110000  101854
  3 17 5   -1762.35060000  101855
  3 17 7   -2303.53980000  101856
  4 17 9   -1637.54190000  101857
  4 17 10   -3399.67140000  101858
  4 17 12   -2289.30520000  101859
  4 17 13   -2181.68900000  101860
  4 17 15   -3343.86280000  101861
  4 17 17   -1526.60690000  101862
  4 17 18   -1931.90880000  101863
  4 17 20    -982.06040000  101864
  4 17 22   -2072.25020000  101865
  4 17 23   -1320.10300000  101866
  4 17 25    -715.24850000  101867
  4 17 26    -240.92538000  101868
  4 17 28       0.00000000  101869
  4 17 30    -413.02120000  101870
  4 17 31    -519.49255000  101871
  4 17 33    -442.42825000  101872
  4 17 34   -1704.71370000  101873
  3 19 4   -2354.76700000  102248
  3 19 5   -1524.57570000  102249
  3 19 7   -1614.49800000  102250
  3 19 9   -2918.73440000  102251
  3 19 10   -3764.29200000  102252
  4 19 12   -2430.84620000  102253
  4 19 13    -995.39020000  102254
  4 19 15   -1559.18130000  102255
  4 19 17    -558.47380000  102256
  4 19 18   -1932.90770000  102257
  4 19 20    -952.03510000  102258
  4 19 22   -1729.86960000  102259
  4 19 23   -1495.84310000  102260
  4 19 25    -807.37580000  102261
  4 19 26   -1048.49960000  102262
  4 19 28    -935.50120000  102263
  4 19 30    -725.32770000  102264
  4 19 31    -569.66690000  102265
  4 19 33    -330.53122000  102266
  4 19 34      -1.45548580  102267
  3 20 4   -1055.72510000  102642
  3 20 5   -1487.69230000  102643
  3 20 7   -2113.52270000  102644
  3 20 9   -1157.82620000  102645
  3 20 10   -2710.96630000  102646
  4 20 12   -1174.69560000  102647
  4 20 13   -1143.29380000  102648
  4 20 15   -1178.77370000  102649
  4 20 17   -1493.65660000  102650
  4 20 18   -2436.47500000  102651
  4 20 20   -2244.64800000  102652
  4 20 22   -1945.26370000  102653
  9 20 23    -741.96796000  102654
  4 20 25    -929.13776000  102655
  4 20 26   -1226.46620000  102656
  4 20 28    -504.63452000  102657
  4 20 30   -1143.92260000  102658
  4 20 31   -1197.32690000  102659
  4 20 33   -1059.47240000  102660
  4 20 34     -13.37687900  102661
  3 22 4   -2157.73360000  103036
  3 22 5   -2773.79370000  103037
  3 22 7   -4300.55660000  103038
  3 22 9   -1472.69290000  103039
  3 22 10   -2158.83620000  103040
  4 22 12   -1661.17220000  103041
  4 22 13   -3643.39770000  103042
  4 22 15   -3973.74240000  103043
  4 22 17    -427.64374000  103044
  4 22 18   -3717.02200000  103045
  4 22 20   -6246.13570000  103046
  4 22 22   -2260.39200000  103047
  4 22 23    -912.67350000  103048
  4 22 25   -2488.07060000  103049
  4 22 26   -1390.54030000  103050
  4 22 28   -1851.73440000  103051
  4 22 30    -772.62946000  103052
  4 22 31    -692.28040000  103053
  4 22 33     -77.83169000  103054
  9 22 34   -1134.98750000  103055
  3 23 4   -2145.56880000  103430
  3 23 5   -3539.58570000  103431
  3 23 7   -2486.48700000  103432
  3 23 9   -2167.54350000  103433
  3 23 10   -2398.78880000  103434
  4 23 12   -2189.72500000  103435
  4 23 13   -1571.77750000  103436
  4 23 15   -2128.18700000  103437
  4 23 17    -398.66614000  103438
  4 23 18   -3296.19780000  103439
  4 23 20   -1277.07840000  103440
  4 23 22   -1320.62490000  103441
  4 23 23    -864.16680000  103442
  4 23 25   -2347.08720000  103443
  4 23 26   -1218.57260000  103444
  4 23 28   -1305.41830000  103445
  4 23 30   -1568.48180000  103446
  4 23 31   -1384.86230000  103447
  4 23 33    -201.13455000  103448
  4 23 34    -377.42957000  103449
  3 25 4   -2641.01120000  103824
  3 25 5   -2857.62920000  103825
  3 25 7   -2605.43680000  103826
  3 25 9   -3325.05470000  103827
  3 25 10   -3226.83470000  103828
  3 25 12   -2286.23440000  103829
  3 25 13   -2972.13940000  103830
  4 25 15   -2803.65100000  103831
  4 25 17   -2916.52600000  103832
  4 25 18   -2446.08400000  103833
  4 25 20    -596.91080000  103834
  4 25 22   -1795.26540000  103835
  4 25 23   -3908.10420000  103836
  4 25 25   -2423.85900000  103837
  4 25 26   -1503.89430000  103838
  4 25 28    -632.22350000  103839
  4 25 30   -1561.91330000  103840
  4 25 31    -568.17080000  103841
  4 25 33    -779.14233000  103842
  4 25 34    -531.00653000  103843
  3 27 4   -1421.71790000  104218
  3 27 5   -2118.53220000  104219
  3 27 7   -2431.55200000  104220
  3 27 9   -4920.72600000  104221
  3 27 10   -1624.57540000  104222
  3 27 12    -461.51382000  104223
  3 27 13   -3413.54640000  104224
  13 27 15   -3010.93480000  104225
  4 27 17   -5372.40970000  104226
  4 27 18   -1971.03830000  104227
  4 27 20    -793.35110000  104228
  4 27 22   -1312.70200000  104229
  4 27 23   -2254.82670000  104230
  4 27 25   -1420.50590000  104231
  4 27 26   -1158.26830000  104232
  4 27 28   -1890.98500000  104233
  4 27 30   -1476.14160000  104234
  4 27 31   -3986.66140000  104235
  4 27 33    -797.51166000  104236
  4 27 34       0.00000000  104237
END period  2

BEGIN period  3
  1 27 3   -1176.36730000  58514
  1 27 5    -959.33790000  58515
  1 27 6   -1722.55410000  58516
  1 27 8   -4919.89060000  58517
  1 27 9   -5658.75800000  58518
  1 27 11   -1831.14140000  58519
  1 27 13   -1142.27750000  58520
  13 27 14    -833.09470000  58521
  13 27 16    -163.95435000  58522
  4 27 18    -822.73566000  58523
  13 27 19    -474.84253000  58524
  4 27 21    -234.03185000  58525
  13 27 24    -190.61324000  58527
  13 27 26   -2361.93770000  58528
  4 27 27   -1990.51810000  58529
  4 27 29    -679.19775000  58530
  4 27 30   -1186.68080000  58531
  1 26 3   -1180.28520000  58908
  1 26 5   -1862.74840000  58909
  1 26 6   -7713.55570000  58910
  1 26 8   -4996.69140000  58911
  1 26 9   -6051.98200000  58912
  1 26 11   -3261.45040000  58913
  1 26 13   -1651.96630000  58914
  13 26 14    -724.53687000  58915
  13 26 16    -736.63540000  58916
  4 26 18    -543.95160000  58917
  13 26 19    -667.20355000  58918
  13 26 21    -166.80089000  58919
  13 26 22    -166.80089000  58920
  13 26 24    -195.78625000  58921
  13 26 26    -760.28620000  58922
  13 26 27   -1724.85140000  58923
  13 26 29    -604.89930000  58924
  13 26 30     -28.43597000  58925
  1 24 3   -1351.20260000  59302
  1 24 5   -3525.89200000  59303
  1 24 6   -3942.16900000  59304
  1 24 8   -4384.20600000  59305
  1 24 9   -8609.48100000  59306
  1 24 11   -2019.33860000  59307
  1 24 13    -699.55225000  59308
  4 24 14   -1763.71470000  59309
  4 24 16   -2571.95390000  59310
  13 24 18    -555.04430000  59311
  13 24 19     -43.54899600  59312
  13 24 21    -223.67280000  59313
  13 24 22    -284.35970000  59314
  13 24 24    -135.64877000  59315
  13 24 26    -142.17986000  59316
  4 24 27   -1661.39440000  59317
  13 24 29    -500.14334000  59318
  13 24 30   -1206.34240000  59319
  1 23 3   -1169.61300000  59696
  1 23 5    -656.00323000  59697
  1 23 6   -5691.25340000  59698
  1 23 8   -5904.02930000  59699
  1 23 9   -2578.27080000  59700
  1 23 11   -7450.43900000  59701
  9 23 13   -6865.43300000  59702
  4 23 14   -4774.45460000  59703
  4 23 16   -6110.17720000  59704
  4 23 18   -4593.50930000  59705
  4 23 19   -1000.14330000  59706
  13 23 26    -451.71000000  59710
  13 23 27    -280.54477000  59711
  13 23 29    -637.69960000  59712
  13 23 30   -1247.91710000  59713
  13 23 32    -454.97552000  59714
  13 23 34    -170.61581000  59715
  1 21 3   -1798.38200000  60090
  1 21 5   -3982.13130000  60091
  1 21 6   -4402.67140000  60092
  1 21 8   -1530.98730000  60093
  1 21 9   -3015.62940000  60094
  1 21 11   -1166.93120000  60095
  4 21 13   -3051.54050000  60096
  4 21 14   -2950.60130000  60097
  4 21 16   -4899.71400000  60098
  4 21 18   -3115.67380000  60099
  4 21 19   -4367.49900000  60100
  13 21 30    -284.35970000  60107
  13 21 32   -1160.15230000  60108
  13 21 34    -966.82300000  60109
  1 19 3   -2569.11720000  60484
  1 19 5   -9305.69300000  60485
  1 19 6   -3115.47500000  60486
  1 19 8   -3736.02400000  60487
  1 19 9   -6378.65620000  60488
  4 19 11   -3767.37940000  60489
  4 19 13   -4270.75400000  60490
  4 19 14   -2597.55320000  60491
  13 19 16   -3249.74100000  60492
  13 19 18    -525.63995000  60493
  13 19 19   -1627.43980000  60494
  13 19 21   -2096.63100000  60495
  13 19 22     -83.40044400  60496
  13 19 24    -333.60178000  60497
  13 19 26     -83.40044400  60498
  13 19 30     -85.30791000  60501
  4 19 32    -417.00220000  60502
  13 19 34     -83.40044400  60503
  1 18 3   -5136.91940000  60878
  1 18 5  -10661.83500000  60879
  1 18 6   -3117.19650000  60880
  1 18 8   -4559.33350000  60881
  1 18 9   -2561.21340000  60882
  4 18 11   -3850.71170000  60883
  4 18 13   -4588.82570000  60884
  4 18 14    -683.67610000  60885
  4 18 16   -1288.97990000  60886
  4 18 18   -1779.61670000  60887
  13 18 19    -536.06396000  60888
  13 18 21    -643.27673000  60889
  13 18 22    -321.63837000  60890
  13 18 24    -548.02734000  60891
  1 16 3   -3959.97530000  61272
  1 16 5   -5474.52600000  61273
  1 16 6   -6316.84400000  61274
  1 16 8   -4402.74300000  61275
  4 16 9   -4444.90300000  61276
  4 16 11   -1706.15820000  61277
  13 16 13    -625.59140000  61278
  4 16 14   -1084.20570000  61279
  4 16 16   -5254.22750000  61280
  13 16 18    -561.08954000  61281
  13 16 19    -398.10355000  61282
  13 16 21   -2050.10550000  61283
  4 16 22   -1904.65990000  61284
  13 16 24    -328.16946000  61285
  1 15 3   -6772.57570000  61666
  1 15 5   -6761.06050000  61667
  1 15 6   -6888.52830000  61668
  1 15 8   -4607.39700000  61669
  4 15 9   -3535.64820000  61670
  4 15 11   -1342.62050000  61671
  4 15 13    -344.81180000  61672
  9 15 14    -426.53955000  61673
  4 15 16   -1039.62960000  61674
  13 15 18    -299.73350000  61675
  13 15 19    -485.72314000  61676
  13 15 21   -1131.71610000  61677
  4 15 22   -1543.28600000  61678
  13 15 24    -296.46793000  61679
  1 13 3   -2642.95680000  62060
  1 13 5   -8261.35900000  62061
  1 13 6   -3335.90010000  62062
  4 13 8   -3562.43400000  62063
  13 13 9   -1296.00330000  62064
  13 13 11    -174.19598000  62065
  4 13 13    -757.05190000  62066
  13 13 14    -331.43500000  62067
  13 13 16   -1700.98500000  62068
  4 13 18    -277.82864000  62069
  4 13 19   -2262.07400000  62070
  4 13 21   -3055.56470000  62071
  13 13 22   -1530.77320000  62072
  13 13 24     -53.60639600  62073
  1 11 3   -2055.29370000  62454
  1 11 5   -7900.54350000  62455
  1 11 6   -4389.70560000  62456
  4 11 8   -4304.07200000  62457
  4 11 9   -1916.52800000  62458
  4 11 11   -1379.96470000  62459
  4 11 13    -574.41547000  62460
  13 11 14    -135.64877000  62461
  4 11 16    -107.08241000  62462
  13 11 18    -142.17986000  62463
  13 11 19   -1483.34770000  62464
  4 11 21   -3326.60160000  62465
  13 11 22   -1529.41500000  62466
  1 10 3   -9715.90500000  62848
  1 10 5   -4264.58350000  62849
  1 10 6   -1880.84740000  62850
  4 10 8   -2419.77300000  62851
  13 10 9   -3168.77730000  62852
  4 10 11    -321.63837000  62853
  13 10 13    -990.38750000  62854
  13 10 14   -2473.92940000  62855
  13 10 16   -1848.33800000  62856
  13 10 18    -393.23218000  62857
  13 10 19    -539.12260000  62858
  4 10 21    -550.91620000  62859
  1 8 3   -3256.67940000  63242
  1 8 5   -1040.38280000  63243
  1 8 6   -4592.38300000  63244
  13 8 8   -1596.08360000  63245
  13 8 9   -1241.38610000  63246
  4 8 11    -329.82920000  63247
  4 8 13   -1273.08750000  63248
  4 8 14   -1057.70800000  63249
  13 8 16    -284.35970000  63250
  13 8 18    -327.90870000  63251
  13 8 19    -555.39650000  63252
  1 7 3   -2379.63280000  63636
  1 7 5    -847.42510000  63637
  1 7 6   -7916.90670000  63638
  4 7 8   -1272.13370000  63639
  4 7 9   -2180.17680000  63640
  4 7 11    -868.45294000  63641
  13 7 13    -761.24020000  63642
  13 7 14    -284.35970000  63643
  1 5 3   -3683.46780000  64030
  1 5 5   -2235.51510000  64031
  1 5 6   -3308.07230000  64032
  13 5 8   -3006.78610000  64033
  13 5 9   -2971.21070000  64034
  13 5 11   -3604.69040000  64035
  13 5 13   -1073.08190000  64036
  13 5 34     -83.40044400  64049
  2 3 3   -1547.47470000  64424
  13 3 5   -1076.75200000  64425
  13 3 6   -1962.48600000  64426
  13 3 8   -4198.22560000  64427
  4 3 9   -1909.57240000  64428
  4 3 11   -1636.46220000  64429
  13 3 13    -800.10190000  64430
  4 3 19    -594.57294000  64434
  4 3 21    -936.30340000  64435
  4 3 22    -773.92370000  64436
  13 3 34    -166.80089000  64443
  1 2 3   -2780.65060000  64818
  2 2 5    -366.40207000  64819
  13 2 6    -621.37190000  64820
  13 2 8   -2088.95600000  64821
  4 2 9   -2270.65800000  64822
  13 2 11   -2355.96600000  64823
  13 2 13   -1066.55070000  64824
  4 2 19   -2303.18500000  64828
  4 2 21   -2315.80100000  64829
  4 2 22    -989.56400000  64830
  4 2 24   -1255.18730000  64831
  4 2 26    -143.03705000  64832
  13 2 29     -43.54899600  64834
  13 2 32    -166.80089000  64836
  9 3 23   -6445.99100000  98320
  10 4 20    -565.54803000  98712
  9 4 23    -121.33201600  98714
  10 7 9    -570.13873000  99493
  10 9 28    -565.54803000  99899
  10 12 23    -565.54803000  100684
  9 12 30    -121.33201600  100688
  9 14 31    -121.33201600  101083
  9 14 33    -121.33201600  101084
  9 14 34    -242.66403000  101085
  10 15 13    -565.54803000  101466
  10 15 20   -1252.42810000  101470
  9 20 23    -121.33201600  102654
  10 22 4    -570.13873000  103036
  10 22 13   -1131.09610000  103042
  9 22 34    -686.88007000  103055
  7 27 4    -151.68626000  104218
  7 27 7    -106.18024400  104220
  10 27 17   -1696.64400000  104226
END period  3

BEGIN period  4
  4 27 18      -2.15690800  58523
  13 27 19      -2.15690800  58524
  4 27 21      -2.15690800  58525
  13 27 24      -2.15690800  58527
  13 27 26      -2.15690800  58528
  4 27 30      -8.62763200  58531
  13 26 16      -2.15690800  58916
  4 26 18     -12.94144800  58917
  13 26 19     -17.25526400  58918
  13 26 21      -4.31381600  58919
  13 26 22      -4.31381600  58920
  13 26 29      -8.62763200  58924
  1 24 8      -2.15690800  59305
  13 24 18      -6.47072400  59311
  13 24 21      -4.31381600  59313
  13 24 29      -2.15690800  59318
  1 23 3      -4.31381600  59696
  13 23 27      -4.31381600  59711
  1 21 9      -2.15690800  60094
  1 21 11      -2.15690800  60095
  4 21 14      -2.15690800  60097
  4 21 16      -4.31381600  60098
  4 21 18      -2.15690800  60099
  13 21 32      -6.47072400  60108
  1 19 8      -2.15690800  60487
  13 19 16      -4.31381600  60492
  13 19 18      -2.15690800  60493
  13 19 21      -4.31381600  60495
  13 19 22      -2.15690800  60496
  13 19 24      -8.62763200  60497
  13 19 26      -2.15690800  60498
  4 19 32     -10.78454000  60502
  13 19 34      -2.15690800  60503
  4 18 13      -2.15690800  60884
  4 18 14      -8.62763200  60885
  4 18 16     -21.56908000  60886
  4 18 18      -8.62763200  60887
  13 18 24      -8.62763200  60891
  4 16 14     -28.03980300  61279
  4 16 16    -135.88521000  61280
  13 16 18      -8.62763200  61281
  1 15 3      -2.15690800  61666
  4 15 16      -8.62763200  61674
  13 15 21      -4.31381600  61677
  4 15 22      -6.47072400  61678
  1 13 3      -2.15690800  62060
  4 13 19      -6.47072400  62070
  13 13 22      -2.15690800  62072
  1 11 5      -2.15690800  62455
  1 10 5      -2.15690800  62849
  1 10 6      -2.15690800  62850
  1 8 3      -2.15690800  63242
  1 7 3      -2.15690800  63636
  1 7 5      -8.62763200  63637
  1 7 6     -15.09835600  63638
  1 5 5     -32.35362200  64031
  1 5 6     -38.82434500  64032
  13 5 34      -2.15690800  64049
  2 3 3     -32.35362200  64424
  13 3 5      -4.31381600  64425
  13 3 34      -4.31381600  64443
  1 2 3     -71.17797000  64818
  13 2 32      -4.31381600  64836
  9 3 23   -6445.99100000  98320
  10 4 20    -565.54803000  98712
  9 4 23    -121.33201600  98714
  10 7 9    -570.13873000  99493
  10 9 28    -565.54803000  99899
  10 12 23    -565.54803000  100684
  9 12 30    -121.33201600  100688
  9 14 31    -121.33201600  101083
  9 14 33    -121.33201600  101084
  9 14 34    -242.66403000  101085
  10 15 13    -565.54803000  101466
  10 15 20   -1252.42810000  101470
  9 20 23    -121.33201600  102654
  10 22 4    -570.13873000  103036
  10 22 13   -1131.09610000  103042
  9 22 34    -686.88007000  103055
  7 27 4    -151.68626000  104218
  7 27 7    -106.18024400  104220
  10 27 17   -1696.64400000  104226
END period  4

BEGIN period  5
  1 27 3   -4133.87900000  58514
  1 27 5   -2230.64670000  58515
  1 27 6   -2005.87720000  58516
  1 27 8   -3202.32370000  58517
  1 27 9  -10986.58600000  58518
  1 27 11   -5134.16600000  58519
  1 27 13   -2188.06420000  58520
  13 27 14   -1272.96140000  58521
  13 27 16    -304.70767000  58522
  4 27 18   -1589.68240000  58523
  13 27 19    -752.89600000  58524
  4 27 21    -428.32486000  58525
  13 27 24    -128.05380000  58527
  13 27 26   -3079.11820000  58528
  4 27 27   -5358.24800000  58529
  4 27 29   -1198.96740000  58530
  4 27 30   -1622.34480000  58531
  13 27 32    -281.21080000  58532
  1 26 3   -1305.93930000  58908
  1 26 5   -1916.57320000  58909
  1 26 6   -5873.76760000  58910
  1 26 8   -6187.95750000  58911
  1 26 9   -4733.15670000  58912
  1 26 11   -5677.10840000  58913
  1 26 13   -2505.95000000  58914
  13 26 14   -1450.63830000  58915
  13 26 16   -1920.80700000  58916
  4 26 18    -188.44720000  58917
  13 26 19    -422.75397000  58918
  13 26 24    -309.14430000  58921
  13 26 26   -1042.17680000  58922
  13 26 27   -4091.16750000  58923
  13 26 29    -385.76767000  58924
  13 26 30    -285.73715000  58925
  1 24 3   -3073.58000000  59302
  1 24 5   -4596.91500000  59303
  1 24 6   -8465.46400000  59304
  1 24 8   -6952.74200000  59305
  1 24 9   -3950.09280000  59306
  1 24 11   -4181.95600000  59307
  1 24 13    -787.37384000  59308
  4 24 14   -2600.51590000  59309
  4 24 16   -4696.39200000  59310
  13 24 18    -389.20210000  59311
  13 24 19    -315.53537000  59312
  13 24 21     -88.32694000  59313
  13 24 22    -561.61847000  59314
  13 24 24    -812.48620000  59315
  13 24 26    -220.81734000  59316
  4 24 27   -2938.88650000  59317
  13 24 29    -525.52500000  59318
  13 24 30   -2262.35000000  59319
  13 24 32    -181.18028000  59320
  4 24 34     -60.39342000  59321
  1 23 3    -946.89044000  59696
  1 23 5   -2562.75560000  59697
  1 23 6   -6691.70560000  59698
  1 23 8   -6566.37840000  59699
  1 23 9   -3923.46440000  59700
  1 23 11   -5062.00730000  59701
  9 23 13   -5820.12200000  59702
  4 23 14   -3460.83060000  59703
  4 23 16   -6653.48700000  59704
  4 23 18   -3523.79830000  59705
  4 23 19   -1385.59860000  59706
  13 23 26    -706.61554000  59710
  13 23 27    -176.65388000  59711
  13 23 29    -883.26935000  59712
  13 23 30   -1987.35620000  59713
  13 23 32   -1104.08670000  59714
  13 23 34    -264.98083000  59715
  1 21 3   -4769.68070000  60090
  1 21 5   -6638.43550000  60091
  1 21 6   -5621.28500000  60092
  1 21 8   -3981.52510000  60093
  1 21 9   -7092.47300000  60094
  1 21 11    -883.26935000  60095
  4 21 13   -6196.62840000  60096
  4 21 14   -6368.40900000  60097
  4 21 16   -9160.64400000  60098
  4 21 18   -4203.73340000  60099
  4 21 19   -4808.79900000  60100
  13 21 30    -502.02810000  60107
  13 21 32   -1743.13160000  60108
  13 21 34   -1545.72140000  60109
  1 19 3   -4141.11900000  60484
  1 19 5   -3003.11600000  60485
  1 19 6   -7246.63230000  60486
  1 19 8   -2828.57900000  60487
  1 19 9   -2159.57350000  60488
  4 19 11   -3482.62000000  60489
  4 19 13   -6082.17330000  60490
  4 19 14   -2773.48170000  60491
  13 19 16   -2590.17000000  60492
  13 19 18    -973.79956000  60493
  13 19 19   -1685.75050000  60494
  13 19 21   -2176.91460000  60495
  13 19 24    -241.57368000  60497
  13 19 26    -181.18028000  60498
  13 19 27     -60.39342000  60499
  13 19 30    -132.49042000  60501
  4 19 32    -301.96713000  60502
  13 19 34     -60.39342000  60503
  1 18 3  -10150.08200000  60878
  1 18 5   -5639.06150000  60879
  1 18 6   -6156.40900000  60880
  1 18 8   -3624.71000000  60881
  1 18 9   -5939.53600000  60882
  4 18 11   -2365.25340000  60883
  4 18 13   -2869.29100000  60884
  4 18 14    -731.09515000  60885
  4 18 16   -1217.69640000  60886
  4 18 18   -2365.56450000  60887
  13 18 19   -1088.45730000  60888
  13 18 21    -768.32275000  60889
  13 18 22    -384.16138000  60890
  13 18 24    -627.64886000  60891
  13 18 30    -120.78684000  60895
  1 16 3   -8224.78200000  61272
  1 16 5   -9647.87100000  61273
  1 16 6   -6986.23630000  61274
  1 16 8  -11366.47700000  61275
  4 16 9   -5907.78300000  61276
  4 16 11   -5081.46500000  61277
  13 16 13   -1258.55750000  61278
  4 16 14    -483.14737000  61279
  4 16 16   -3753.57300000  61280
  13 16 18    -493.95800000  61281
  13 16 19    -960.40350000  61282
  13 16 21   -2945.23750000  61283
  4 16 22   -2304.96830000  61284
  13 16 24    -512.21520000  61285
  13 16 26    -120.78684000  61286
  13 16 27    -264.98083000  61287
  13 16 29    -120.78684000  61288
  13 16 34     -60.39342000  61291
  1 15 3   -5702.15970000  61666
  1 15 5   -5570.91700000  61667
  1 15 6   -4376.41750000  61668
  1 15 8   -6004.95360000  61669
  4 15 9   -3218.16200000  61670
  4 15 11   -2535.05980000  61671
  4 15 13    -564.27210000  61672
  9 15 14    -662.45200000  61673
  4 15 16   -1247.56740000  61674
  13 15 18    -388.59802000  61675
  13 15 19    -600.54205000  61676
  13 15 21   -1280.53800000  61677
  4 15 22   -1909.90670000  61678
  13 15 24    -364.29797000  61679
  13 15 26    -362.36057000  61680
  8 15 27    -120.78684000  61681
  8 15 32     -60.39342000  61684
  9 15 34     -60.39342000  61685
  1 13 3   -5731.18550000  62060
  1 13 5   -6668.71000000  62061
  1 13 6   -4873.66750000  62062
  4 13 8   -5675.33700000  62063
  13 13 9    -803.07990000  62064
  13 13 11    -512.21520000  62065
  4 13 13   -2137.18750000  62066
  13 13 14    -576.24207000  62067
  13 13 16   -2733.29320000  62068
  4 13 18    -472.48834000  62069
  4 13 19   -2362.44170000  62070
  4 13 21   -3450.89900000  62071
  13 13 22   -1900.94350000  62072
  13 13 24    -124.42033000  62073
  13 13 26     -60.39342000  62074
  13 13 27     -60.39342000  62075
  13 13 29    -543.54080000  62076
  13 13 30    -301.96713000  62077
  13 13 32    -362.36057000  62078
  9 13 34    -422.75397000  62079
  1 11 3   -2227.10820000  62454
  1 11 5   -5734.95750000  62455
  1 11 6   -2154.73100000  62456
  4 11 8   -2921.14000000  62457
  4 11 9   -2068.43700000  62458
  4 11 11   -1678.21190000  62459
  4 11 13    -768.72614000  62460
  13 11 14    -192.08069000  62461
  4 11 16    -176.65388000  62462
  13 11 18    -300.27103000  62463
  13 11 19   -2791.21310000  62464
  4 11 21   -4314.10200000  62465
  13 11 22   -1856.78000000  62466
  13 11 26    -120.78684000  62468
  13 11 29    -724.72110000  62470
  1 10 3   -4632.40800000  62848
  1 10 5   -7298.36500000  62849
  1 10 6   -3921.93500000  62850
  4 10 8   -3739.85960000  62851
  13 10 9   -2892.60570000  62852
  4 10 11    -432.76150000  62853
  13 10 13   -1728.88570000  62854
  13 10 14   -4063.03900000  62855
  13 10 16   -2826.46220000  62856