# MODFLOW-6 SFR input; created by SFRmaker v. 0.4.0.post1+g74510a9

BEGIN Options
  save_flows
  BUDGET FILEOUT shellmound.sfr.cbc
  STAGE FILEOUT shellmound.sfr.stage.bin
  unit_conversion  86400.0
END Options

BEGIN Dimensions
  NREACHES 362
END Dimensions

BEGIN Packagedata
#rno k i j rlen rwid rgrd rtp rbth rhk man ncon ustrf ndv
1 4 1 16 238.65036 3.272570617177649 1e-04 37.721344 1.0 1.0 0.03700000047683716 1 1.0 0
2 4 2 16 1232.5746 3.322756849968327 1e-04 37.721344 1.0 1.0 0.03700000047683716 2 1.0 0
3 4 3 16 221.97884 3.3723743895795786 1e-04 37.721344 1.0 1.0 0.03700000047683716 2 1.0 0
4 4 3 15 793.9577 3.4070298902044076 0.00010627206 37.721344 1.0 1.0 0.03700000047683716 2 1.0 0
5 4 3 15 273.1395 3.6709416284446315 0.0008002018 37.636967 1.0 1.0 0.03700000047683716 2 1.0 0
6 4 4 15 434.40228 3.6928696307394944 0.00070094666 37.418404 1.0 1.0 0.03700000047683716 2 1.0 0
7 4 4 14 551.29846 3.723418286253048 0.000753093 37.11391 1.0 1.0 0.03700000047683716 2 1.0 0
8 4 1 12 211.93591 17.582699609569968 1e-04 35.34655 1.0 1.0 0.03700000047683716 1 1.0 0
9 4 1 11 855.2023 17.594401086377488 1e-04 35.34655 1.0 1.0 0.03700000047683716 2 1.0 0
10 4 2 11 1161.7445 17.616517488665718 1e-04 35.34655 1.0 1.0 0.03700000047683716 2 1.0 0
11 4 3 11 770.6988 17.637707285356733 1e-04 35.34655 1.0 1.0 0.03700000047683716 2 1.0 0
12 4 4 14 676.10504 3.8968094079739757 0.00040249986 36.69873 1.0 1.0 0.03700000047683716 2 1.0 0
13 4 4 13 75.25044 3.918936896069356 0.0010960851 36.426598 1.0 1.0 0.03700000047683716 2 1.0 0
14 4 5 13 152.47874 3.9256435440463138 0.0036929208 36.344116 1.0 1.0 0.03700000047683716 2 1.0 0
15 4 3 11 232.6385 17.647763287303047 1e-04 35.34655 1.0 1.0 0.03700000047683716 2 1.0 0
16 4 3 12 519.1943 17.65295049129578 1e-04 35.34655 1.0 1.0 0.03700000047683716 2 1.0 0
17 4 4 12 1165.6306 17.664574792598984 1e-04 35.34655 1.0 1.0 0.03700000047683716 2 1.0 0
18 4 5 13 258.42383 4.03936243057251 0.0020846417 35.781025 1.0 1.0 0.03700000047683716 2 1.0 0
19 4 4 12 160.85802 17.710650813910853 0.00026192778 35.324795 1.0 1.0 0.03700000047683716 2 1.0 0
20 4 5 12 150.68007 17.71279221139761 0.00030392755 35.28266 1.0 1.0 0.03700000047683716 2 1.0 0
21 4 5 13 187.94003 17.71511976062875 0.00021366293 35.236866 1.0 1.0 0.03700000047683716 2 1.0 0
22 4 5 13 564.0291 18.367368698120117 1e-04 35.242302 1.0 1.0 0.03700000047683716 2 1.0 0
23 4 1 7 1223.4786 18.996141097836873 0.00029435416 33.37406 1.0 1.0 0.03700000047683716 1 1.0 0
24 4 1 8 432.2122 19.016092918210408 0.00021751405 33.013927 1.0 1.0 0.03700000047683716 2 1.0 0
25 4 5 13 179.52443 18.50274143031257 0.0004706843 35.19671 1.0 1.0 0.03700000047683716 3 1.0 0
26 4 5 12 849.74255 18.50952464633874 0.00012688249 35.11221 1.0 1.0 0.03700000047683716 2 1.0 0
27 4 6 12 463.55713 18.51817973376045 0.00028308659 35.004395 1.0 1.0 0.03700000047683716 2 1.0 0
28 4 6 11 1134.8866 18.52871401569946 0.00016639874 34.873165 1.0 1.0 0.03700000047683716 2 1.0 0
29 4 7 11 1165.3746 18.54387351549384 0.00022907447 34.684322 1.0 1.0 0.03700000047683716 2 1.0 0
30 4 1 8 160.48048 19.42144575224556 1e-04 32.919914 1.0 1.0 0.03700000047683716 2 1.0 0
31 4 2 8 1066.5188 19.429203281462495 1e-04 32.919914 1.0 1.0 0.03700000047683716 2 1.0 0
32 4 3 8 720.3323 19.440500394633805 1e-04 32.919914 1.0 1.0 0.03700000047683716 2 1.0 0
33 4 3 7 481.51633 19.448098914159942 1e-04 32.919914 1.0 1.0 0.03700000047683716 2 1.0 0
34 4 4 7 870.5771 19.456647332557083 1e-04 32.919914 1.0 1.0 0.03700000047683716 2 1.0 0
35 4 4 6 913.12683 19.467924546351817 1e-04 32.919914 1.0 1.0 0.03700000047683716 2 1.0 0
36 4 8 11 136.09346 18.55635169640517 0.0034925216 34.417366 1.0 1.0 0.03700000047683716 2 1.0 0
37 4 8 10 241.56232 18.558963810252266 0.0012585784 33.942055 1.0 1.0 0.03700000047683716 2 1.0 0
38 1 5 6 324.39023 19.475733999469885 1e-04 32.919914 1.0 1.0 0.03700000047683716 2 1.0 0
39 1 5 5 506.01065 19.480946783474934 1e-04 32.919914 1.0 1.0 0.03700000047683716 2 1.0 0
40 4 8 10 489.6241 18.563857078552246 1e-04 33.63803 1.0 1.0 0.03700000047683716 2 1.0 0
41 1 5 5 640.0313 19.535054206848145 1e-04 32.919914 1.0 1.0 0.03700000047683716 2 1.0 0
42 4 8 10 254.3504 18.793034877943036 1e-04 33.62502 1.0 1.0 0.03700000047683716 2 1.0 0
43 4 9 10 153.73366 18.795687046216962 1e-04 33.60414 1.0 1.0 0.03700000047683716 2 1.0 0
44 1 5 4 1021.2361 19.63753664866397 1e-04 32.919914 1.0 1.0 0.03700000047683716 2 1.0 0
45 1 6 4 883.4469 19.649510028939083 1e-04 32.919914 1.0 1.0 0.03700000047683716 2 1.0 0
46 4 9 10 577.2553 18.828734217843714 1e-04 33.590927 1.0 1.0 0.03700000047683716 2 1.0 0
47 4 9 11 553.964 18.836072914408945 1e-04 33.580444 1.0 1.0 0.03700000047683716 2 1.0 0
48 4 10 11 223.71275 18.84111803277509 0.00015852816 33.57324 1.0 1.0 0.03700000047683716 2 1.0 0
49 1 6 4 521.1865 19.808000406251523 1e-04 32.919914 1.0 1.0 0.03700000047683716 2 1.0 0
50 1 7 4 450.54807 19.814002954582538 1e-04 32.919914 1.0 1.0 0.03700000047683716 2 1.0 0
51 1 7 3 439.67578 19.81950199901461 1e-04 32.919914 1.0 1.0 0.03700000047683716 2 1.0 0
52 4 10 11 74.29544 18.98200225830078 0.000539747 33.537773 1.0 1.0 0.03700000047683716 2 1.0 0
53 4 10 23 636.6879 4.022155863872113 1e-04 38.272747 1.0 1.0 0.03700000047683716 1 1.0 0
54 4 9 22 395.87054 4.0513147570828885 1e-04 38.272747 1.0 1.0 0.03700000047683716 2 1.0 0
55 4 10 22 1108.653 4.093801695268456 1e-04 38.272747 1.0 1.0 0.03700000047683716 2 1.0 0
56 4 11 22 227.21962 4.131526016602419 1e-04 38.272747 1.0 1.0 0.03700000047683716 2 1.0 0
57 4 11 21 1150.314 4.170426825881467 1e-04 38.272747 1.0 1.0 0.03700000047683716 2 1.0 0
58 4 11 20 613.53125 4.220236864451452 1e-04 38.272747 1.0 1.0 0.03700000047683716 2 1.0 0
59 1 7 3 400.04425 19.84543510199916 1e-04 32.919914 1.0 1.0 0.03700000047683716 2 1.0 0
60 1 7 4 82.16827 19.848406658205054 1e-04 32.919914 1.0 1.0 0.03700000047683716 2 1.0 0
61 1 8 4 1804.2799 19.860031588870946 1e-04 32.919914 1.0 1.0 0.03700000047683716 2 1.0 0
62 1 9 4 68.28311 19.87157095354322 1e-04 32.919914 1.0 1.0 0.03700000047683716 2 1.0 0
63 1 9 5 1651.1492 19.882166674215284 1e-04 32.919914 1.0 1.0 0.03700000047683716 2 1.0 0
64 4 10 11 1053.5045 18.989260977953297 1e-04 33.497673 1.0 1.0 0.03700000047683716 2 1.0 0
65 4 10 12 211.0589 18.99740154270396 1e-04 33.48962 1.0 1.0 0.03700000047683716 2 1.0 0
66 4 11 20 656.8548 4.349182747944667 0.00010849286 38.24589 1.0 1.0 0.03700000047683716 2 1.0 0
67 4 10 19 1086.1262 4.395755004568268 1e-04 38.174625 1.0 1.0 0.03700000047683716 2 1.0 0
68 4 10 18 636.4053 4.441780855437681 0.00040949846 38.1042 1.0 1.0 0.03700000047683716 2 1.0 0
69 1 9 5 222.74397 19.893716977570765 1e-04 32.919914 1.0 1.0 0.03700000047683716 2 1.0 0
70 1 10 5 487.3536 19.89810157435529 1e-04 32.919914 1.0 1.0 0.03700000047683716 2 1.0 0
71 1 10 6 312.1024 19.903037926781305 1e-04 32.919914 1.0 1.0 0.03700000047683716 2 1.0 0
72 1 10 5 203.54909 19.90622188899376 1e-04 32.919914 1.0 1.0 0.03700000047683716 2 1.0 0
73 1 10 6 263.05402 19.909102994620774 1e-04 32.919914 1.0 1.0 0.03700000047683716 2 1.0 0
74 1 11 6 1228.1797 19.91831082523277 1e-04 32.919914 1.0 1.0 0.03700000047683716 2 1.0 0
75 4 11 7 651.97723 19.929920118888575 1e-04 32.919914 1.0 1.0 0.03700000047683716 2 1.0 0
76 4 12 7 180.46259 19.93506013568827 1e-04 32.919914 1.0 1.0 0.03700000047683716 2 1.0 0
77 1 12 6 827.8507 19.941286108219263 1e-04 32.919914 1.0 1.0 0.03700000047683716 2 1.0 0
78 4 10 12 154.76143 19.045183181762695 1e-04 33.488277 1.0 1.0 0.03700000047683716 2 1.0 0
79 4 10 18 173.6006 4.668884515762329 0.0017460098 37.84359 1.0 1.0 0.03700000047683716 2 1.0 0
80 4 17 22 223.72618 2.955627450162533 1e-04 36.750233 1.0 1.0 0.03700000047683716 1 1.0 0
81 4 18 22 311.5249 2.9761294219918093 0.0003870292 36.750233 1.0 1.0 0.03700000047683716 2 1.0 0
82 4 12 7 308.38718 22.02010549099091 1e-04 32.919914 1.0 1.0 0.03700000047683716 2 1.0 0
83 4 13 7 408.78516 22.024102312359705 1e-04 32.919914 1.0 1.0 0.03700000047683716 2 1.0 0
84 4 12 7 1011.4173 22.032017139142983 1e-04 32.919914 1.0 1.0 0.03700000047683716 2 1.0 0
85 4 12 8 750.88696 22.04183851001342 1e-04 32.919914 1.0 1.0 0.03700000047683716 2 1.0 0
86 4 11 8 585.7987 22.049287895131005 1e-04 32.919914 1.0 1.0 0.03700000047683716 2 1.0 0
87 4 11 9 1303.6846 22.059818037797054 1e-04 32.919914 1.0 1.0 0.03700000047683716 2 1.0 0
88 4 12 9 361.3985 22.06909759094771 1e-04 32.919914 1.0 1.0 0.03700000047683716 2 1.0 0
89 4 12 10 282.57385 22.072686462734364 1e-04 32.919914 1.0 1.0 0.03700000047683716 2 1.0 0
90 4 11 10 660.79047 22.077943862991162 1e-04 32.919914 1.0 1.0 0.03700000047683716 2 1.0 0
91 4 12 10 1019.84735 22.08731009739834 1e-04 32.919914 1.0 1.0 0.03700000047683716 2 1.0 0
92 4 12 11 402.22534 22.09523534503526 1e-04 32.919914 1.0 1.0 0.03700000047683716 2 1.0 0
93 4 11 12 1043.7516 19.718868708363942 1e-04 33.480743 1.0 1.0 0.03700000047683716 2 1.0 0
94 4 12 12 60.352333 19.725721079969855 0.00011395859 33.472775 1.0 1.0 0.03700000047683716 2 1.0 0
95 4 12 11 892.4386 19.731634362414784 0.0006117859 33.465897 1.0 1.0 0.03700000047683716 2 1.0 0
96 4 10 14 367.43936 4.057380197667019 1e-04 36.706673 1.0 1.0 0.03700000047683716 1 1.0 0
97 4 10 13 547.9275 4.083244321102826 0.0005301813 36.706673 1.0 1.0 0.03700000047683716 2 1.0 0
98 4 8 15 307.98782 3.2415058234480387 0.0006523745 37.278778 1.0 1.0 0.03700000047683716 1 1.0 0
99 4 9 15 1010.96204 3.2881050748840246 0.00022143169 37.077854 1.0 1.0 0.03700000047683716 2 1.0 0
100 4 10 15 458.54755 3.3400236832073724 0.00021643886 36.853996 1.0 1.0 0.03700000047683716 2 1.0 0
101 4 10 16 192.95674 3.3630417064293368 0.00044992988 36.75475 1.0 1.0 0.03700000047683716 2 1.0 0
102 4 10 18 451.77704 5.1536725324418695 0.0005220704 37.54048 1.0 1.0 0.03700000047683716 2 1.0 0
103 4 9 17 1103.2919 5.188527226816212 0.00017092314 37.304623 1.0 1.0 0.03700000047683716 2 1.0 0
104 4 9 16 140.0418 5.216394812892977 0.0014707497 37.116047 1.0 1.0 0.03700000047683716 2 1.0 0
105 4 10 16 1217.9365 5.246831998711896 0.00019881896 36.91008 1.0 1.0 0.03700000047683716 2 1.0 0
106 4 9 25 1072.6873 3.4199737789245113 1e-04 36.61037 1.0 1.0 0.03700000047683716 1 1.0 0
107 4 9 26 1053.1478 3.4928601183246 1e-04 36.61037 1.0 1.0 0.03700000047683716 2 1.0 0
108 4 18 22 444.39325 3.2254979610443115 0.00031287526 36.62966 1.0 1.0 0.03700000047683716 2 1.0 0
109 4 12 11 671.19965 22.756366965516847 1e-04 32.919914 1.0 1.0 0.03700000047683716 3 1.0 0
110 4 13 11 1238.3945 22.76668883138055 1e-04 32.919914 1.0 1.0 0.03700000047683716 2 1.0 0
111 4 13 12 1502.292 22.781502972101173 1e-04 32.919914 1.0 1.0 0.03700000047683716 2 1.0 0
112 4 10 13 595.67303 4.30422381064331 0.00055014633 36.416172 1.0 1.0 0.03700000047683716 2 1.0 0
113 4 10 12 76.29178 4.322228468116702 0.0015415465 36.088463 1.0 1.0 0.03700000047683716 2 1.0 0
114 4 10 15 363.17252 6.303111387021762 0.00037411434 36.66793 1.0 1.0 0.03700000047683716 3 1.0 0
115 4 11 15 496.13037 6.319285511891544 0.0003510204 36.532063 1.0 1.0 0.03700000047683716 2 1.0 0
116 4 11 16 605.29987 6.3400170544975625 0.00024770014 36.35791 1.0 1.0 0.03700000047683716 2 1.0 0
117 4 12 16 342.95654 6.357865496412085 0.001878815 36.207977 1.0 1.0 0.03700000047683716 2 1.0 0
118 4 1 34 723.07074 61.72013473510742 0.00015326239 37.423607 1.0 1.0 0.03700000047683716 1 1.0 0
119 4 1 33 1110.7822 61.72013473510742 0.00011563803 37.312786 1.0 1.0 0.03700000047683716 2 1.0 0
120 4 1 32 1014.7993 61.72013473510742 0.000112292844 37.184338 1.0 1.0 0.03700000047683716 2 1.0 0
121 4 1 31 870.93427 61.72013473510742 1e-04 37.07038 1.0 1.0 0.03700000047683716 2 1.0 0
122 4 2 31 141.85274 61.72013473510742 0.0002958605 37.00918 1.0 1.0 0.03700000047683716 2 1.0 0
123 4 2 30 552.64825 61.72013473510742 0.00014559148 36.967213 1.0 1.0 0.03700000047683716 2 1.0 0
124 4 1 30 778.8255 61.72013473510742 1e-04 36.88675 1.0 1.0 0.03700000047683716 2 1.0 0
125 4 1 29 427.6043 61.72013473510742 0.00010995711 36.813847 1.0 1.0 0.03700000047683716 2 1.0 0
126 4 9 27 632.4843 3.710096234298157 1e-04 36.608704 1.0 1.0 0.03700000047683716 2 1.0 0
127 4 8 27 1129.0331 3.762463347522016 1e-04 36.604065 1.0 1.0 0.03700000047683716 2 1.0 0
128 4 7 27 57.912148 3.7977493505786444 1e-04 36.600937 1.0 1.0 0.03700000047683716 2 1.0 0
129 4 7 28 1028.5258 3.8300474156555353 1e-04 36.598076 1.0 1.0 0.03700000047683716 2 1.0 0
130 4 6 28 1017.33453 3.8908676016054833 1e-04 36.59269 1.0 1.0 0.03700000047683716 2 1.0 0
131 4 5 28 1110.3428 3.9541200741655302 1e-04 36.587086 1.0 1.0 0.03700000047683716 2 1.0 0
132 4 4 28 147.3212 3.991508433583805 1e-04 36.58377 1.0 1.0 0.03700000047683716 2 1.0 0
133 4 4 29 724.59174 4.0174290278112705 1e-04 36.581474 1.0 1.0 0.03700000047683716 2 1.0 0
134 4 18 22 161.49025 3.5401549758923467 0.0006368883 36.490623 1.0 1.0 0.03700000047683716 2 1.0 0
135 4 18 21 737.7571 3.568511789340717 0.00027490957 36.38777 1.0 1.0 0.03700000047683716 2 1.0 0
136 4 17 21 1035.5045 3.6244297163400327 0.00022386294 36.184956 1.0 1.0 0.03700000047683716 2 1.0 0
137 4 16 21 991.2617 3.6883416596679557 0.00012207625 35.953144 1.0 1.0 0.03700000047683716 2 1.0 0
138 4 16 20 66.74693 3.7217048335567857 0.0004378554 35.832134 1.0 1.0 0.03700000047683716 2 1.0 0
139 4 15 20 188.77675 3.729762510573404 0.00035233545 35.80291 1.0 1.0 0.03700000047683716 2 1.0 0
140 4 13 12 156.36179 22.79652738496866 1e-04 32.919914 1.0 1.0 0.03700000047683716 2 1.0 0
141 4 13 13 151.5944 22.798190592811654 1e-04 32.919914 1.0 1.0 0.03700000047683716 2 1.0 0
142 4 10 12 187.67647 19.249186276840955 0.0025367388 35.970856 1.0 1.0 0.03700000047683716 2 1.0 0
143 4 11 12 923.6305 19.256238071166123 0.00055598374 35.49477 1.0 1.0 0.03700000047683716 2 1.0 0
144 4 11 13 275.06476 19.263844388109078 0.002001968 34.981247 1.0 1.0 0.03700000047683716 2 1.0 0
145 4 12 13 1010.342 19.27200093127259 0.00079463 34.430576 1.0 1.0 0.03700000047683716 2 1.0 0
146 4 13 13 863.71063 19.28389272672903 0.000819504 33.627728 1.0 1.0 0.03700000047683716 2 1.0 0
147 4 12 16 812.9935 6.561573739324133 0.00029474217 35.563625 1.0 1.0 0.03700000047683716 2 1.0 0
148 4 12 15 55.261 6.577062792767906 0.0040436806 35.324 1.0 1.0 0.03700000047683716 2 1.0 0
149 4 13 15 754.4186 6.591506912219322 0.00079501665 35.100544 1.0 1.0 0.03700000047683716 2 1.0 0
150 4 1 29 397.18307 70.05325317382812 0.00018761147 36.766827 1.0 1.0 0.03700000047683716 2 1.0 0
151 4 2 29 1000.3236 70.05325317382812 0.000106685715 36.69231 1.0 1.0 0.03700000047683716 2 1.0 0
152 4 3 29 1001.15314 70.05325317382812 1e-04 36.58559 1.0 1.0 0.03700000047683716 2 1.0 0
153 4 4 29 237.2505 70.05325317382812 0.00010356691 36.519558 1.0 1.0 0.03700000047683716 2 1.0 0
154 4 4 29 122.08812 72.43077087402344 0.000395208 36.570282 1.0 1.0 0.03700000047683716 2 1.0 0
155 4 15 20 952.12286 3.7636976261100115 1e-04 35.736397 1.0 1.0 0.03700000047683716 2 1.0 0
156 4 15 19 1023.58716 3.8217623827565257 0.000101305064 35.64318 1.0 1.0 0.03700000047683716 2 1.0 0
157 4 15 18 1174.2501 3.8863553069231958 1e-04 35.53949 1.0 1.0 0.03700000047683716 2 1.0 0
158 4 15 17 1244.7539 3.957448169873529 1e-04 35.425358 1.0 1.0 0.03700000047683716 2 1.0 0
159 4 16 17 1271.5502 4.0314006359392165 1e-04 35.30664 1.0 1.0 0.03700000047683716 2 1.0 0
160 4 17 17 294.226 4.077417727683353 0.0004909723 35.232765 1.0 1.0 0.03700000047683716 2 1.0 0
161 4 13 13 407.3329 22.83637768430831 1e-04 32.919914 1.0 1.0 0.03700000047683716 3 1.0 0
162 4 14 13 900.32275 22.843424088795814 1e-04 32.919914 1.0 1.0 0.03700000047683716 2 1.0 0
163 4 14 14 558.095 22.851282886546347 1e-04 32.919914 1.0 1.0 0.03700000047683716 2 1.0 0
164 4 15 14 445.79443 22.85669242164764 1e-04 32.919914 1.0 1.0 0.03700000047683716 2 1.0 0
165 4 13 15 930.7356 7.248987333037598 0.00072764605 34.50077 1.0 1.0 0.03700000047683716 2 1.0 0
166 4 14 15 679.03827 7.2750975053093265 0.00063109805 33.823524 1.0 1.0 0.03700000047683716 2 1.0 0
167 4 4 29 539.9559 73.24705505371094 1e-04 36.494987 1.0 1.0 0.03700000047683716 2 1.0 0
168 4 4 29 102.90982 71.92646789550781 0.0003830088 36.522034 1.0 1.0 0.03700000047683716 2 1.0 0
169 4 17 17 373.31613 4.219255208969116 0.001005374 35.08831 1.0 1.0 0.03700000047683716 2 1.0 0
170 4 15 14 201.6002 22.8971586227417 1e-04 32.919914 1.0 1.0 0.03700000047683716 2 1.0 0
171 4 14 15 391.37238 7.349757931934767 0.0005863386 33.39498 1.0 1.0 0.03700000047683716 2 1.0 0
172 4 15 15 237.28075 7.359818885746445 0.0007000287 33.16551 1.0 1.0 0.03700000047683716 2 1.0 0
173 4 15 14 217.76057 7.36710135810831 0.00036502923 32.999405 1.0 1.0 0.03700000047683716 2 1.0 0
174 4 4 29 110.24677 70.36021423339844 1e-04 36.482616 1.0 1.0 0.03700000047683716 3 1.0 0
175 4 4 30 784.06256 70.36021423339844 1e-04 36.47898 1.0 1.0 0.03700000047683716 2 1.0 0
176 4 5 30 411.3185 70.36021423339844 1e-04 36.47412 1.0 1.0 0.03700000047683716 2 1.0 0
177 4 5 31 866.5761 70.36021423339844 1e-04 36.468925 1.0 1.0 0.03700000047683716 2 1.0 0
178 4 6 31 1017.5784 70.36021423339844 1e-04 36.461266 1.0 1.0 0.03700000047683716 2 1.0 0
179 4 7 31 991.55597 70.36021423339844 1e-04 36.4531 1.0 1.0 0.03700000047683716 2 1.0 0
180 4 17 17 438.50827 4.402983665466309 0.0020140219 34.712986 1.0 1.0 0.03700000047683716 2 1.0 0
181 4 15 14 62.79178 23.757138715362043 1e-04 32.919914 1.0 1.0 0.03700000047683716 3 1.0 0
182 4 15 15 336.40793 23.75920914230296 0.0008027859 32.919914 1.0 1.0 0.03700000047683716 2 1.0 0
183 4 7 31 199.49402 69.46031951904297 0.0001251342 36.42552 1.0 1.0 0.03700000047683716 2 1.0 0
184 4 17 16 1181.2313 4.595020522012823 0.0006306974 33.829823 1.0 1.0 0.03700000047683716 2 1.0 0
185 4 16 16 197.2023 4.629523056988172 0.003016343 33.08482 1.0 1.0 0.03700000047683716 2 1.0 0
186 4 16 15 903.3799 4.657070906942542 0.00057453226 32.48999 1.0 1.0 0.03700000047683716 2 1.0 0
187 4 15 15 584.18994 23.78039307609992 0.00078584964 32.64985 1.0 1.0 0.03700000047683716 2 1.0 0
188 4 16 15 408.88416 23.78554101005988 0.0005375475 32.190765 1.0 1.0 0.03700000047683716 2 1.0 0
189 1 14 6 989.15027 2.4059052129496252 1e-04 35.699226 1.0 1.0 0.03700000047683716 1 1.0 0
190 1 13 6 551.1244 2.4690175552321314 1e-04 35.699226 1.0 1.0 0.03700000047683716 2 1.0 0
191 4 13 7 1219.3789 2.5415634651370884 1e-04 35.699226 1.0 1.0 0.03700000047683716 2 1.0 0
192 1 14 7 1220.3386 2.6415302364893685 1e-04 35.699226 1.0 1.0 0.03700000047683716 2 1.0 0
193 1 15 7 946.3642 2.7303103247409766 1e-04 35.699226 1.0 1.0 0.03700000047683716 2 1.0 0
194 1 15 8 905.7902 2.806201857842521 1e-04 35.699226 1.0 1.0 0.03700000047683716 2 1.0 0
195 1 16 8 531.92285 2.86511176379014 1e-04 35.699226 1.0 1.0 0.03700000047683716 2 1.0 0
196 4 16 9 1298.2706 2.940103453278205 1e-04 35.699226 1.0 1.0 0.03700000047683716 2 1.0 0
197 4 17 9 340.49152 3.0072513218692407 1e-04 35.699226 1.0 1.0 0.03700000047683716 2 1.0 0
198 4 17 10 467.7516 3.0403688320195634 1e-04 35.699226 1.0 1.0 0.03700000047683716 2 1.0 0
199 4 16 10 570.8549 3.0829254167728286 1e-04 35.699226 1.0 1.0 0.03700000047683716 2 1.0 0
200 4 16 11 794.2573 3.138860572902175 0.0004401526 35.699226 1.0 1.0 0.03700000047683716 2 1.0 0
201 4 8 31 67.29547 68.20967864990234 0.00038977328 36.40056 1.0 1.0 0.03700000047683716 2 1.0 0
202 4 8 30 1174.794 68.20967864990234 1e-04 36.37433 1.0 1.0 0.03700000047683716 2 1.0 0
203 4 9 30 630.25635 68.20967864990234 1e-04 36.336212 1.0 1.0 0.03700000047683716 2 1.0 0
204 4 9 29 312.50037 68.20967864990234 1e-04 36.316303 1.0 1.0 0.03700000047683716 2 1.0 0
205 4 16 15 838.2556 24.28695636041808 1e-04 31.97097 1.0 1.0 0.03700000047683716 3 1.0 0
206 4 17 15 425.44507 24.293373603508776 0.00012598293 31.92458 1.0 1.0 0.03700000047683716 2 1.0 0
207 4 17 14 1034.5969 24.300787894335812 1e-04 31.870981 1.0 1.0 0.03700000047683716 2 1.0 0
208 4 16 11 720.16724 3.639666682906763 0.0010820593 35.349632 1.0 1.0 0.03700000047683716 2 1.0 0
209 4 16 12 885.122 3.688919355110894 0.0009591488 34.57037 1.0 1.0 0.03700000047683716 2 1.0 0
210 4 17 12 863.7497 3.74257735334533 0.0011522993 33.721405 1.0 1.0 0.03700000047683716 2 1.0 0
211 4 17 13 1186.5725 3.805484293558125 0.00061905634 32.726105 1.0 1.0 0.03700000047683716 2 1.0 0
212 4 17 14 326.61642 3.851911204775442 0.00049608113 31.99155 1.0 1.0 0.03700000047683716 2 1.0 0
213 4 9 29 156.49449 65.7249984741211 0.00021005073 36.30531 1.0 1.0 0.03700000047683716 2 1.0 0
214 4 10 29 1013.7859 65.7249984741211 1e-04 36.272438 1.0 1.0 0.03700000047683716 2 1.0 0
215 4 11 29 341.34705 65.7249984741211 1e-04 36.23437 1.0 1.0 0.03700000047683716 2 1.0 0
216 4 11 30 241.7274 65.7249984741211 1e-04 36.217995 1.0 1.0 0.03700000047683716 2 1.0 0
217 4 17 14 157.261 24.64065940795407 1e-04 31.829523 1.0 1.0 0.03700000047683716 3 1.0 0
218 4 18 14 408.85715 24.643509151244277 1e-04 31.817005 1.0 1.0 0.03700000047683716 2 1.0 0
219 4 18 14 650.9277 24.648843929768383 1e-04 31.793571 1.0 1.0 0.03700000047683716 2 1.0 0
220 4 11 30 601.76 65.06617736816406 1e-04 36.197094 1.0 1.0 0.03700000047683716 2 1.0 0
221 4 12 30 610.05896 65.06617736816406 1e-04 36.168674 1.0 1.0 0.03700000047683716 2 1.0 0
222 4 12 31 1055.5736 65.06617736816406 1e-04 36.129612 1.0 1.0 0.03700000047683716 2 1.0 0
223 4 18 14 526.4451 24.66966142516309 1e-04 31.771452 1.0 1.0 0.03700000047683716 2 1.0 0
224 4 19 14 1433.8779 24.679572451871977 1e-04 31.742682 1.0 1.0 0.03700000047683716 2 1.0 0
225 4 19 13 1297.7224 24.693382911880747 1e-04 31.702593 1.0 1.0 0.03700000047683716 2 1.0 0
226 4 19 12 324.94995 24.70158684280865 1e-04 31.678778 1.0 1.0 0.03700000047683716 2 1.0 0
227 4 19 13 249.62218 24.704491770422315 1e-04 31.670345 1.0 1.0 0.03700000047683716 2 1.0 0
228 4 20 12 566.97156 24.70862031346713 0.00017260894 31.658361 1.0 1.0 0.03700000047683716 2 1.0 0
229 4 12 32 1521.1941 67.48756408691406 1e-04 36.08916 1.0 1.0 0.03700000047683716 2 1.0 0
230 4 13 32 1066.6396 67.48756408691406 1e-04 36.062454 1.0 1.0 0.03700000047683716 2 1.0 0
231 4 14 32 1150.2285 67.48756408691406 1e-04 36.039577 1.0 1.0 0.03700000047683716 2 1.0 0
232 4 15 32 634.1929 67.48756408691406 1e-04 36.021164 1.0 1.0 0.03700000047683716 2 1.0 0
233 4 15 31 1062.0532 67.48756408691406 1e-04 36.00366 1.0 1.0 0.03700000047683716 2 1.0 0
234 4 16 31 164.54219 67.48756408691406 1e-04 35.991 1.0 1.0 0.03700000047683716 2 1.0 0
235 4 16 30 991.9484 67.48756408691406 1e-04 35.979065 1.0 1.0 0.03700000047683716 2 1.0 0
236 4 17 30 1116.1199 67.48756408691406 1e-04 35.95731 1.0 1.0 0.03700000047683716 2 1.0 0
237 4 17 29 429.1214 67.48756408691406 1e-04 35.941364 1.0 1.0 0.03700000047683716 2 1.0 0
238 4 18 29 792.7633 67.48756408691406 1e-04 35.928753 1.0 1.0 0.03700000047683716 2 1.0 0
239 4 18 28 737.0662 67.48756408691406 1e-04 35.912968 1.0 1.0 0.03700000047683716 2 1.0 0
240 4 19 28 611.3396 67.48756408691406 1e-04 35.89905 1.0 1.0 0.03700000047683716 2 1.0 0
241 4 19 27 652.9406 67.48756408691406 1e-04 35.886005 1.0 1.0 0.03700000047683716 2 1.0 0
242 4 20 27 422.39563 67.48756408691406 1e-04 35.87491 1.0 1.0 0.03700000047683716 2 1.0 0
243 4 20 12 197.09775 24.71247100830078 0.0006203668 31.560497 1.0 1.0 0.03700000047683716 2 1.0 0
244 4 20 27 584.7903 69.10382843017578 1e-04 35.87055 1.0 1.0 0.03700000047683716 2 1.0 0
245 4 21 27 1006.7066 69.10382843017578 1e-04 35.87055 1.0 1.0 0.03700000047683716 2 1.0 0
246 4 22 28 1204.6381 69.10382843017578 1e-04 35.87055 1.0 1.0 0.03700000047683716 2 1.0 0
247 4 22 29 887.922 69.10382843017578 1e-04 35.87055 1.0 1.0 0.03700000047683716 2 1.0 0
248 4 20 12 648.9151 24.72023141515556 1e-04 31.438223 1.0 1.0 0.03700000047683716 2 1.0 0
249 4 21 12 583.4713 24.726384640414626 1e-04 31.376064 1.0 1.0 0.03700000047683716 2 1.0 0
250 4 21 13 316.51828 24.73087822966383 1e-04 31.330671 1.0 1.0 0.03700000047683716 2 1.0 0
251 4 21 12 159.44188 24.73325466779545 0.00071949686 31.306665 1.0 1.0 0.03700000047683716 2 1.0 0
252 4 22 29 157.63713 66.55555725097656 1e-04 35.87055 1.0 1.0 0.03700000047683716 2 1.0 0
253 4 22 30 1050.4419 66.55555725097656 1e-04 35.87055 1.0 1.0 0.03700000047683716 2 1.0 0
254 4 21 30 602.22644 66.55555725097656 1e-04 35.87055 1.0 1.0 0.03700000047683716 2 1.0 0
255 4 21 12 151.27428 24.734804153442383 0.0007153491 31.191948 1.0 1.0 0.03700000047683716 2 1.0 0
256 4 21 30 648.22437 65.44318389892578 0.00013094925 35.87055 1.0 1.0 0.03700000047683716 2 1.0 0
257 4 21 12 66.95304 24.87568116584566 1e-04 31.083735 1.0 1.0 0.03700000047683716 2 1.0 0
258 4 22 12 51.090534 24.87626672191378 0.00063371327 31.081022 1.0 1.0 0.03700000047683716 2 1.0 0
259 4 20 30 591.8885 64.17692565917969 0.00029447515 35.785664 1.0 1.0 0.03700000047683716 2 1.0 0
260 4 20 31 623.458 64.17692565917969 0.00034466776 35.611366 1.0 1.0 0.03700000047683716 2 1.0 0
261 4 19 31 874.9131 64.17692565917969 0.0001509712 35.39648 1.0 1.0 0.03700000047683716 2 1.0 0
262 4 22 12 190.58434 24.928353309631348 0.00036574865 31.048645 1.0 1.0 0.03700000047683716 2 1.0 0
263 4 19 31 172.67317 65.63768005371094 1e-04 35.264397 1.0 1.0 0.03700000047683716 2 1.0 0
264 4 22 13 299.59183 24.931029319763184 0.0004920397 30.97894 1.0 1.0 0.03700000047683716 2 1.0 0
265 4 27 26 437.29074 3.1031025676771247 1e-04 34.78607 1.0 1.0 0.03700000047683716 1 1.0 0
266 4 27 25 1085.5255 3.1574131927652527 1e-04 34.78607 1.0 1.0 0.03700000047683716 2 1.0 0
267 4 27 24 1137.1465 3.2366838950956214 1e-04 34.78607 1.0 1.0 0.03700000047683716 2 1.0 0
268 4 27 23 424.42932 3.2923768573261034 1e-04 34.78607 1.0 1.0 0.03700000047683716 2 1.0 0
269 4 19 31 210.92139 68.07389068603516 1e-04 35.256725 1.0 1.0 0.03700000047683716 2 1.0 0
270 4 19 32 1025.4137 68.07389068603516 1e-04 35.250538 1.0 1.0 0.03700000047683716 2 1.0 0
271 4 19 33 1129.4949 68.07389068603516 1e-04 35.23975 1.0 1.0 0.03700000047683716 2 1.0 0
272 4 19 34 689.32074 68.07389068603516 1e-04 35.230644 1.0 1.0 0.03700000047683716 2 1.0 0
273 4 20 34 1067.6577 68.07389068603516 1e-04 35.221848 1.0 1.0 0.03700000047683716 2 1.0 0
274 4 21 34 551.4507 68.07389068603516 1e-04 35.21374 1.0 1.0 0.03700000047683716 2 1.0 0
275 4 26 34 886.8888 64.7513198852539 1e-04 34.177902 1.0 1.0 0.03700000047683716 1 1.0 0
276 4 22 13 1455.5765 24.941339106654496 1e-04 30.83153 1.0 1.0 0.03700000047683716 2 1.0 0
277 4 22 14 147.76237 24.949274053627796 0.0006303706 30.711565 1.0 1.0 0.03700000047683716 2 1.0 0
278 4 23 14 1097.1346 24.955435068218492 1e-04 30.61842 1.0 1.0 0.03700000047683716 2 1.0 0
279 4 23 13 362.72836 24.962659950599573 0.00011196375 30.509192 1.0 1.0 0.03700000047683716 2 1.0 0
280 1 24 13 180.06244 24.96534623129957 0.00021087659 30.468578 1.0 1.0 0.03700000047683716 2 1.0 0
281 4 23 13 327.42453 24.967857793416172 0.0003811271 30.430607 1.0 1.0 0.03700000047683716 2 1.0 0
282 1 24 13 1340.417 24.97611196452248 1e-04 30.305817 1.0 1.0 0.03700000047683716 2 1.0 0
283 1 25 13 315.49176 24.984307078514746 0.00033567258 30.18192 1.0 1.0 0.03700000047683716 2 1.0 0
284 4 27 23 595.44794 3.3278904552762434 1e-04 34.78607 1.0 1.0 0.03700000047683716 2 1.0 0
285 4 27 22 1031.8953 3.383578894300321 1e-04 34.78607 1.0 1.0 0.03700000047683716 2 1.0 0
286 4 27 21 925.20593 3.450551804016115 1e-04 34.78607 1.0 1.0 0.03700000047683716 2 1.0 0
287 4 21 34 666.4489 66.47590637207031 0.00013102299 35.18016 1.0 1.0 0.03700000047683716 2 1.0 0
288 4 21 33 1221.7869 66.47590637207031 1e-04 35.09284 1.0 1.0 0.03700000047683716 2 1.0 0
289 4 22 33 1289.4144 66.47590637207031 1e-04 34.97671 1.0 1.0 0.03700000047683716 2 1.0 0
290 4 23 33 154.827 66.47590637207031 0.000115550865 34.909924 1.0 1.0 0.03700000047683716 2 1.0 0
291 4 26 34 125.86149 70.53642272949219 1e-04 34.177902 1.0 1.0 0.03700000047683716 2 1.0 0
292 4 27 34 181.33502 70.53642272949219 1e-04 34.177902 1.0 1.0 0.03700000047683716 2 1.0 0
293 4 26 33 1184.1481 70.53642272949219 1e-04 34.177902 1.0 1.0 0.03700000047683716 2 1.0 0
294 4 26 32 903.904 70.53642272949219 1e-04 34.177902 1.0 1.0 0.03700000047683716 2 1.0 0
295 1 25 13 332.71286 24.987512978905684 0.00051150745 30.076017 1.0 1.0 0.03700000047683716 2 1.0 0
296 1 25 12 355.32217 24.99091378166883 0.00031855947 29.905832 1.0 1.0 0.03700000047683716 2 1.0 0
297 4 26 21 1302.6047 4.570434627281562 1e-04 34.78607 1.0 1.0 0.03700000047683716 2 1.0 0
298 4 26 20 523.07184 4.616509017692939 1e-04 34.78607 1.0 1.0 0.03700000047683716 2 1.0 0
299 1 20 3 190.33173 31.90676507566308 1e-04 30.7956 1.0 1.0 0.03700000047683716 1 1.0 0
300 1 20 3 346.82867 31.910377314557053 1e-04 30.7956 1.0 1.0 0.03700000047683716 2 1.0 0
301 1 21 3 327.63828 31.91491289807366 1e-04 30.7956 1.0 1.0 0.03700000047683716 2 1.0 0
302 4 23 33 685.7125 67.06302642822266 1e-04 34.892033 1.0 1.0 0.03700000047683716 2 1.0 0
303 4 23 32 944.77905 67.06302642822266 1e-04 34.866516 1.0 1.0 0.03700000047683716 2 1.0 0
304 4 24 32 129.49597 67.06302642822266 0.00019544896 34.84971 1.0 1.0 0.03700000047683716 2 1.0 0
305 4 24 31 1487.8792 67.06302642822266 1e-04 34.824398 1.0 1.0 0.03700000047683716 2 1.0 0
306 4 25 31 53.279858 67.06302642822266 0.00030750877 34.80028 1.0 1.0 0.03700000047683716 2 1.0 0
307 4 25 30 993.7084 67.06302642822266 1e-04 34.783897 1.0 1.0 0.03700000047683716 2 1.0 0
308 4 26 30 1046.2805 67.06302642822266 1e-04 34.751972 1.0 1.0 0.03700000047683716 2 1.0 0
309 4 26 32 303.75287 69.27659606933594 1e-04 34.177902 1.0 1.0 0.03700000047683716 2 1.0 0
310 1 25 12 389.01617 25.071524056593333 1e-04 29.79264 1.0 1.0 0.03700000047683716 2 1.0 0
311 1 26 12 64.227036 25.073755654493723 0.0006476524 29.76316 1.0 1.0 0.03700000047683716 2 1.0 0
312 4 26 20 107.1941 4.632346524350792 1e-04 34.785126 1.0 1.0 0.03700000047683716 2 1.0 0
313 4 25 20 438.8258 4.645777742066153 1e-04 34.78031 1.0 1.0 0.03700000047683716 2 1.0 0
314 4 25 19 376.4787 4.6658329329603765 1e-04 34.773125 1.0 1.0 0.03700000047683716 2 1.0 0
315 4 26 19 852.2642 4.69605804743152 1e-04 34.76229 1.0 1.0 0.03700000047683716 2 1.0 0
316 4 26 18 1059.0656 4.7430737104214336 1e-04 34.745438 1.0 1.0 0.03700000047683716 2 1.0 0