BEGIN options
  READASARRAYS
  PRINT_INPUT
  SAVE_FLOWS
END options

BEGIN period  1
  recharge
    OPEN/CLOSE  './external/rch0.dat'  FACTOR  1.0
END period  1

BEGIN period  2
  recharge
    OPEN/CLOSE  './external/rch1.dat'  FACTOR  1.0
END period  2

BEGIN period  3
  recharge
    OPEN/CLOSE  './external/rch2.dat'  FACTOR  1.0
END period  3

BEGIN period  4
  recharge
    OPEN/CLOSE  './external/rch3.dat'  FACTOR  1.0
END period  4

BEGIN period  5
  recharge
    OPEN/CLOSE  './external/rch4.dat'  FACTOR  1.0
END period  5

BEGIN period  6
  recharge
    OPEN/CLOSE  './external/rch5.dat'  FACTOR  1.0
END period  6

BEGIN period  7
  recharge
    OPEN/CLOSE  './external/rch6.dat'  FACTOR  1.0
END period  7

BEGIN period  8
  recharge
    OPEN/CLOSE  './external/rch7.dat'  FACTOR  1.0
END period  8

BEGIN period  9
  recharge
    OPEN/CLOSE  './external/rch8.dat'  FACTOR  1.0
END period  9

BEGIN period  10
  recharge
    OPEN/CLOSE  './external/rch9.dat'  FACTOR  1.0
END period  10

BEGIN period  11
  recharge
    OPEN/CLOSE  './external/rch10.dat'  FACTOR  1.0
END period  11

BEGIN period  12
  recharge
    OPEN/CLOSE  './external/rch11.dat'  FACTOR  1.0
END period  12

BEGIN period  13
  recharge
    OPEN/CLOSE  './external/rch12.dat'  FACTOR  1.0
END period  13

BEGIN period  14
  recharge
    OPEN/CLOSE  './external/rch13.dat'  FACTOR  1.0
END period  14

BEGIN period  15
  recharge
    OPEN/CLOSE  './external/rch14.dat'  FACTOR  1.0
END period  15

BEGIN period  16
  recharge
    OPEN/CLOSE  './external/rch15.dat'  FACTOR  1.0
END period  16

BEGIN period  17
  recharge
    OPEN/CLOSE  './external/rch16.dat'  FACTOR  1.0
END period  17

BEGIN period  18
  recharge
    OPEN/CLOSE  './external/rch17.dat'  FACTOR  1.0
END period  18

BEGIN period  19
  recharge
    OPEN/CLOSE  './external/rch18.dat'  FACTOR  1.0
END period  19

