BEGIN options
  DIGITS  10
  PRINT_INPUT
END options

BEGIN continuous  FILEOUT  shellmound.head.obs
  3131090171601  HEAD  4 27 28
  3131090171601  HEAD  5 27 28
  3131090171601  HEAD  6 27 28
  3131090171601  HEAD  7 27 28
  3131090171601  HEAD  8 27 28
  3131090171601  HEAD  9 27 28
  3131090171601  HEAD  10 27 28
  3131090171601  HEAD  11 27 28
  3131090171601  HEAD  12 27 28
  3131090171601  HEAD  13 27 28
  3144090145401  HEAD  4 27 30
  3144090145401  HEAD  5 27 30
  3144090145401  HEAD  6 27 30
  3144090145401  HEAD  7 27 30
  3144090145401  HEAD  8 27 30
  3144090145401  HEAD  9 27 30
  3144090145401  HEAD  10 27 30
  3144090145401  HEAD  11 27 30
  3144090145401  HEAD  12 27 30
  3144090145401  HEAD  13 27 30
  3148090142501  HEAD  4 27 31
  3148090142501  HEAD  5 27 31
  3148090142501  HEAD  6 27 31
  3148090142501  HEAD  7 27 31
  3148090142501  HEAD  8 27 31
  3148090142501  HEAD  9 27 31
  3148090142501  HEAD  10 27 31
  3148090142501  HEAD  11 27 31
  3148090142501  HEAD  12 27 31
  3148090142501  HEAD  13 27 31
  3154090175201  HEAD  4 27 25
  3154090175201  HEAD  5 27 25
  3154090175201  HEAD  6 27 25
  3154090175201  HEAD  7 27 25
  3154090175201  HEAD  8 27 25
  3154090175201  HEAD  9 27 25
  3154090175201  HEAD  10 27 25
  3154090175201  HEAD  11 27 25
  3154090175201  HEAD  12 27 25
  3154090175201  HEAD  13 27 25
  3154090183901  HEAD  4 27 24
  3154090183901  HEAD  5 27 24
  3154090183901  HEAD  6 27 24
  3154090183901  HEAD  7 27 24
  3154090183901  HEAD  8 27 24
  3154090183901  HEAD  9 27 24
  3154090183901  HEAD  10 27 24
  3154090183901  HEAD  11 27 24
  3154090183901  HEAD  12 27 24
  3154090183901  HEAD  13 27 24
  3157090185501  HEAD  4 27 24
  3157090185501  HEAD  5 27 24
  3157090185501  HEAD  6 27 24
  3157090185501  HEAD  7 27 24
  3157090185501  HEAD  8 27 24
  3157090185501  HEAD  9 27 24
  3157090185501  HEAD  10 27 24
  3157090185501  HEAD  11 27 24
  3157090185501  HEAD  12 27 24
  3157090185501  HEAD  13 27 24
  3203090205301  HEAD  4 27 21
  3203090205301  HEAD  5 27 21
  3203090205301  HEAD  6 27 21
  3203090205301  HEAD  7 27 21
  3203090205301  HEAD  8 27 21
  3203090205301  HEAD  9 27 21
  3203090205301  HEAD  10 27 21
  3203090205301  HEAD  11 27 21
  3203090205301  HEAD  12 27 21
  3203090205301  HEAD  13 27 21
  3206090185401  HEAD  4 27 24
  3206090185401  HEAD  5 27 24
  3206090185401  HEAD  6 27 24
  3206090185401  HEAD  7 27 24
  3206090185401  HEAD  8 27 24
  3206090185401  HEAD  9 27 24
  3206090185401  HEAD  10 27 24
  3206090185401  HEAD  11 27 24
  3206090185401  HEAD  12 27 24
  3206090185401  HEAD  13 27 24
  3209090220401  HEAD  4 27 19
  3209090220401  HEAD  5 27 19
  3209090220401  HEAD  6 27 19
  3209090220401  HEAD  7 27 19
  3209090220401  HEAD  8 27 19
  3209090220401  HEAD  9 27 19
  3209090220401  HEAD  10 27 19
  3209090220401  HEAD  11 27 19
  3209090220401  HEAD  12 27 19
  3209090220401  HEAD  13 27 19
  3219090145601  HEAD  4 26 30
  3219090145601  HEAD  5 26 30
  3219090145601  HEAD  6 26 30
  3219090145601  HEAD  7 26 30
  3219090145601  HEAD  8 26 30
  3219090145601  HEAD  9 26 30
  3219090145601  HEAD  10 26 30
  3219090145601  HEAD  11 26 30
  3219090145601  HEAD  12 26 30
  3219090145601  HEAD  13 26 30
  3220090151201  HEAD  4 26 29
  3220090151201  HEAD  5 26 29
  3220090151201  HEAD  6 26 29
  3220090151201  HEAD  7 26 29
  3220090151201  HEAD  8 26 29
  3220090151201  HEAD  9 26 29
  3220090151201  HEAD  10 26 29
  3220090151201  HEAD  11 26 29
  3220090151201  HEAD  12 26 29
  3220090151201  HEAD  13 26 29
  3224090252801  HEAD  4 27 14
  3224090252801  HEAD  5 27 14
  3224090252801  HEAD  6 27 14
  3224090252801  HEAD  7 27 14
  3224090252801  HEAD  8 27 14
  3224090252801  HEAD  9 27 14
  3224090252801  HEAD  10 27 14
  3224090252801  HEAD  11 27 14
  3224090252801  HEAD  12 27 14
  3224090252801  HEAD  13 27 14
  3225090284501  HEAD  1 27 8
  3225090284501  HEAD  2 27 8
  3225090284501  HEAD  3 27 8
  3225090284501  HEAD  4 27 8
  3225090284501  HEAD  5 27 8
  3225090284501  HEAD  6 27 8
  3225090284501  HEAD  7 27 8
  3225090284501  HEAD  8 27 8
  3225090284501  HEAD  9 27 8
  3225090284501  HEAD  10 27 8
  3225090284501  HEAD  11 27 8
  3225090284501  HEAD  12 27 8
  3225090284501  HEAD  13 27 8
  3226090283701  HEAD  1 27 9
  3226090283701  HEAD  2 27 9
  3226090283701  HEAD  3 27 9
  3226090283701  HEAD  4 27 9
  3226090283701  HEAD  5 27 9
  3226090283701  HEAD  6 27 9
  3226090283701  HEAD  7 27 9
  3226090283701  HEAD  8 27 9
  3226090283701  HEAD  9 27 9
  3226090283701  HEAD  10 27 9
  3226090283701  HEAD  11 27 9
  3226090283701  HEAD  12 27 9
  3226090283701  HEAD  13 27 9
  3227090174201  HEAD  4 26 25
  3227090174201  HEAD  5 26 25
  3227090174201  HEAD  6 26 25
  3227090174201  HEAD  7 26 25
  3227090174201  HEAD  8 26 25
  3227090174201  HEAD  9 26 25
  3227090174201  HEAD  10 26 25
  3227090174201  HEAD  11 26 25
  3227090174201  HEAD  12 26 25
  3227090174201  HEAD  13 26 25
  3228090273001  HEAD  1 27 10
  3228090273001  HEAD  2 27 10
  3228090273001  HEAD  3 27 10
  3228090273001  HEAD  4 27 10
  3228090273001  HEAD  5 27 10
  3228090273001  HEAD  6 27 10
  3228090273001  HEAD  7 27 10
  3228090273001  HEAD  8 27 10
  3228090273001  HEAD  9 27 10
  3228090273001  HEAD  10 27 10
  3228090273001  HEAD  11 27 10
  3228090273001  HEAD  12 27 10
  3228090273001  HEAD  13 27 10
  3230090283401  HEAD  1 27 9
  3230090283401  HEAD  2 27 9
  3230090283401  HEAD  3 27 9
  3230090283401  HEAD  4 27 9
  3230090283401  HEAD  5 27 9
  3230090283401  HEAD  6 27 9
  3230090283401  HEAD  7 27 9
  3230090283401  HEAD  8 27 9
  3230090283401  HEAD  9 27 9
  3230090283401  HEAD  10 27 9
  3230090283401  HEAD  11 27 9
  3230090283401  HEAD  12 27 9
  3230090283401  HEAD  13 27 9
  3230090285201  HEAD  1 27 8
  3230090285201  HEAD  2 27 8
  3230090285201  HEAD  3 27 8
  3230090285201  HEAD  4 27 8
  3230090285201  HEAD  5 27 8
  3230090285201  HEAD  6 27 8
  3230090285201  HEAD  7 27 8
  3230090285201  HEAD  8 27 8
  3230090285201  HEAD  9 27 8
  3230090285201  HEAD  10 27 8
  3230090285201  HEAD  11 27 8
  3230090285201  HEAD  12 27 8
  3230090285201  HEAD  13 27 8
  3230090303801  HEAD  1 27 6
  3230090303801  HEAD  2 27 6
  3230090303801  HEAD  3 27 6
  3230090303801  HEAD  4 27 6
  3230090303801  HEAD  5 27 6
  3230090303801  HEAD  6 27 6
  3230090303801  HEAD  7 27 6
  3230090303801  HEAD  8 27 6
  3230090303801  HEAD  9 27 6
  3230090303801  HEAD  10 27 6
  3230090303801  HEAD  11 27 6
  3230090303801  HEAD  12 27 6
  3230090303801  HEAD  13 27 6
  3231090213701  HEAD  4 27 19
  3231090213701  HEAD  5 27 19
  3231090213701  HEAD  6 27 19
  3231090213701  HEAD  7 27 19
  3231090213701  HEAD  8 27 19
  3231090213701  HEAD  9 27 19
  3231090213701  HEAD  10 27 19
  3231090213701  HEAD  11 27 19
  3231090213701  HEAD  12 27 19
  3231090213701  HEAD  13 27 19
  3232090212001  HEAD  4 26 20
  3232090212001  HEAD  5 26 20
  3232090212001  HEAD  6 26 20
  3232090212001  HEAD  7 26 20
  3232090212001  HEAD  8 26 20
  3232090212001  HEAD  9 26 20
  3232090212001  HEAD  10 26 20
  3232090212001  HEAD  11 26 20
  3232090212001  HEAD  12 26 20
  3232090212001  HEAD  13 26 20
  3232090273201  HEAD  1 27 10
  3232090273201  HEAD  2 27 10
  3232090273201  HEAD  3 27 10
  3232090273201  HEAD  4 27 10
  3232090273201  HEAD  5 27 10
  3232090273201  HEAD  6 27 10
  3232090273201  HEAD  7 27 10
  3232090273201  HEAD  8 27 10
  3232090273201  HEAD  9 27 10
  3232090273201  HEAD  10 27 10
  3232090273201  HEAD  11 27 10
  3232090273201  HEAD  12 27 10
  3232090273201  HEAD  13 27 10
  3232090273202  HEAD  1 27 10
  3232090273202  HEAD  2 27 10
  3232090273202  HEAD  3 27 10
  3232090273202  HEAD  4 27 10
  3232090273202  HEAD  5 27 10
  3232090273202  HEAD  6 27 10
  3232090273202  HEAD  7 27 10
  3232090273202  HEAD  8 27 10
  3232090273202  HEAD  9 27 10
  3232090273202  HEAD  10 27 10
  3232090273202  HEAD  11 27 10
  3232090273202  HEAD  12 27 10
  3232090273202  HEAD  13 27 10
  3232090294401  HEAD  1 27 7
  3232090294401  HEAD  2 27 7
  3232090294401  HEAD  3 27 7
  3232090294401  HEAD  4 27 7
  3232090294401  HEAD  5 27 7
  3232090294401  HEAD  6 27 7
  3232090294401  HEAD  7 27 7
  3232090294401  HEAD  8 27 7
  3232090294401  HEAD  9 27 7
  3232090294401  HEAD  10 27 7
  3232090294401  HEAD  11 27 7
  3232090294401  HEAD  12 27 7
  3232090294401  HEAD  13 27 7
  3233090163101  HEAD  4 26 27
  3233090163101  HEAD  5 26 27
  3233090163101  HEAD  6 26 27
  3233090163101  HEAD  7 26 27
  3233090163101  HEAD  8 26 27
  3233090163101  HEAD  9 26 27
  3233090163101  HEAD  10 26 27
  3233090163101  HEAD  11 26 27
  3233090163101  HEAD  12 26 27
  3233090163101  HEAD  13 26 27
  3233090292201  HEAD  1 27 7
  3233090292201  HEAD  2 27 7
  3233090292201  HEAD  3 27 7
  3233090292201  HEAD  4 27 7
  3233090292201  HEAD  5 27 7
  3233090292201  HEAD  6 27 7
  3233090292201  HEAD  7 27 7
  3233090292201  HEAD  8 27 7
  3233090292201  HEAD  9 27 7
  3233090292201  HEAD  10 27 7
  3233090292201  HEAD  11 27 7
  3233090292201  HEAD  12 27 7
  3233090292201  HEAD  13 27 7
  3233090302101  HEAD  1 27 6
  3233090302101  HEAD  2 27 6
  3233090302101  HEAD  3 27 6
  3233090302101  HEAD  4 27 6
  3233090302101  HEAD  5 27 6
  3233090302101  HEAD  6 27 6
  3233090302101  HEAD  7 27 6
  3233090302101  HEAD  8 27 6
  3233090302101  HEAD  9 27 6
  3233090302101  HEAD  10 27 6
  3233090302101  HEAD  11 27 6
  3233090302101  HEAD  12 27 6
  3233090302101  HEAD  13 27 6
  3233090312201  HEAD  1 27 4
  3233090312201  HEAD  2 27 4
  3233090312201  HEAD  3 27 4
  3233090312201  HEAD  4 27 4
  3233090312201  HEAD  5 27 4
  3233090312201  HEAD  6 27 4
  3233090312201  HEAD  7 27 4
  3233090312201  HEAD  8 27 4
  3233090312201  HEAD  9 27 4
  3233090312201  HEAD  10 27 4
  3233090312201  HEAD  11 27 4
  3233090312201  HEAD  12 27 4
  3233090312201  HEAD  13 27 4
  3234090313501  HEAD  1 27 4
  3234090313501  HEAD  2 27 4
  3234090313501  HEAD  3 27 4
  3234090313501  HEAD  4 27 4
  3234090313501  HEAD  5 27 4
  3234090313501  HEAD  6 27 4
  3234090313501  HEAD  7 27 4
  3234090313501  HEAD  8 27 4
  3234090313501  HEAD  9 27 4
  3234090313501  HEAD  10 27 4
  3234090313501  HEAD  11 27 4
  3234090313501  HEAD  12 27 4
  3234090313501  HEAD  13 27 4
  3234090314601  HEAD  1 27 4
  3234090314601  HEAD  2 27 4
  3234090314601  HEAD  3 27 4
  3234090314601  HEAD  4 27 4
  3234090314601  HEAD  5 27 4
  3234090314601  HEAD  6 27 4
  3234090314601  HEAD  7 27 4
  3234090314601  HEAD  8 27 4
  3234090314601  HEAD  9 27 4
  3234090314601  HEAD  10 27 4
  3234090314601  HEAD  11 27 4
  3234090314601  HEAD  12 27 4
  3234090314601  HEAD  13 27 4
  3235090281601  HEAD  1 27 9
  3235090281601  HEAD  2 27 9
  3235090281601  HEAD  3 27 9
  3235090281601  HEAD  4 27 9
  3235090281601  HEAD  5 27 9
  3235090281601  HEAD  6 27 9
  3235090281601  HEAD  7 27 9
  3235090281601  HEAD  8 27 9
  3235090281601  HEAD  9 27 9
  3235090281601  HEAD  10 27 9
  3235090281601  HEAD  11 27 9
  3235090281601  HEAD  12 27 9
  3235090281601  HEAD  13 27 9
  3235090305701  HEAD  1 27 5
  3235090305701  HEAD  2 27 5
  3235090305701  HEAD  3 27 5
  3235090305701  HEAD  4 27 5
  3235090305701  HEAD  5 27 5
  3235090305701  HEAD  6 27 5
  3235090305701  HEAD  7 27 5
  3235090305701  HEAD  8 27 5
  3235090305701  HEAD  9 27 5
  3235090305701  HEAD  10 27 5
  3235090305701  HEAD  11 27 5
  3235090305701  HEAD  12 27 5
  3235090305701  HEAD  13 27 5
  3236090213801  HEAD  4 26 19
  3236090213801  HEAD  5 26 19
  3236090213801  HEAD  6 26 19
  3236090213801  HEAD  7 26 19
  3236090213801  HEAD  8 26 19
  3236090213801  HEAD  9 26 19
  3236090213801  HEAD  10 26 19
  3236090213801  HEAD  11 26 19
  3236090213801  HEAD  12 26 19
  3236090213801  HEAD  13 26 19
  3236090314201  HEAD  1 27 4
  3236090314201  HEAD  2 27 4
  3236090314201  HEAD  3 27 4
  3236090314201  HEAD  4 27 4
  3236090314201  HEAD  5 27 4
  3236090314201  HEAD  6 27 4
  3236090314201  HEAD  7 27 4
  3236090314201  HEAD  8 27 4
  3236090314201  HEAD  9 27 4
  3236090314201  HEAD  10 27 4
  3236090314201  HEAD  11 27 4
  3236090314201  HEAD  12 27 4
  3236090314201  HEAD  13 27 4
  3238090285001  HEAD  1 27 8
  3238090285001  HEAD  2 27 8
  3238090285001  HEAD  3 27 8
  3238090285001  HEAD  4 27 8
  3238090285001  HEAD  5 27 8
  3238090285001  HEAD  6 27 8
  3238090285001  HEAD  7 27 8
  3238090285001  HEAD  8 27 8
  3238090285001  HEAD  9 27 8
  3238090285001  HEAD  10 27 8
  3238090285001  HEAD  11 27 8
  3238090285001  HEAD  12 27 8
  3238090285001  HEAD  13 27 8
  3239090271001  HEAD  1 27 11
  3239090271001  HEAD  2 27 11
  3239090271001  HEAD  3 27 11
  3239090271001  HEAD  4 27 11
  3239090271001  HEAD  5 27 11
  3239090271001  HEAD  6 27 11
  3239090271001  HEAD  7 27 11
  3239090271001  HEAD  8 27 11
  3239090271001  HEAD  9 27 11
  3239090271001  HEAD  10 27 11
  3239090271001  HEAD  11 27 11
  3239090271001  HEAD  12 27 11
  3239090271001  HEAD  13 27 11
  3240090274801  HEAD  1 27 10
  3240090274801  HEAD  2 27 10
  3240090274801  HEAD  3 27 10
  3240090274801  HEAD  4 27 10
  3240090274801  HEAD  5 27 10
  3240090274801  HEAD  6 27 10
  3240090274801  HEAD  7 27 10
  3240090274801  HEAD  8 27 10
  3240090274801  HEAD  9 27 10
  3240090274801  HEAD  10 27 10
  3240090274801  HEAD  11 27 10
  3240090274801  HEAD  12 27 10
  3240090274801  HEAD  13 27 10
  3244090195201  HEAD  4 26 22
  3244090195201  HEAD  5 26 22
  3244090195201  HEAD  6 26 22
  3244090195201  HEAD  7 26 22
  3244090195201  HEAD  8 26 22
  3244090195201  HEAD  9 26 22
  3244090195201  HEAD  10 26 22
  3244090195201  HEAD  11 26 22
  3244090195201  HEAD  12 26 22
  3244090195201  HEAD  13 26 22
  3245090274501  HEAD  1 27 10
  3245090274501  HEAD  2 27 10
  3245090274501  HEAD  3 27 10
  3245090274501  HEAD  4 27 10
  3245090274501  HEAD  5 27 10
  3245090274501  HEAD  6 27 10
  3245090274501  HEAD  7 27 10
  3245090274501  HEAD  8 27 10
  3245090274501  HEAD  9 27 10
  3245090274501  HEAD  10 27 10
  3245090274501  HEAD  11 27 10
  3245090274501  HEAD  12 27 10
  3245090274501  HEAD  13 27 10
  3245090292801  HEAD  1 27 7
  3245090292801  HEAD  2 27 7
  3245090292801  HEAD  3 27 7
  3245090292801  HEAD  4 27 7
  3245090292801  HEAD  5 27 7
  3245090292801  HEAD  6 27 7
  3245090292801  HEAD  7 27 7
  3245090292801  HEAD  8 27 7
  3245090292801  HEAD  9 27 7
  3245090292801  HEAD  10 27 7
  3245090292801  HEAD  11 27 7
  3245090292801  HEAD  12 27 7
  3245090292801  HEAD  13 27 7
  3248090290701  HEAD  1 27 8
  3248090290701  HEAD  2 27 8
  3248090290701  HEAD  3 27 8
  3248090290701  HEAD  4 27 8
  3248090290701  HEAD  5 27 8
  3248090290701  HEAD  6 27 8
  3248090290701  HEAD  7 27 8
  3248090290701  HEAD  8 27 8
  3248090290701  HEAD  9 27 8
  3248090290701  HEAD  10 27 8
  3248090290701  HEAD  11 27 8
  3248090290701  HEAD  12 27 8
  3248090290701  HEAD  13 27 8
  3250090211801  HEAD  4 26 20
  3250090211801  HEAD  5 26 20
  3250090211801  HEAD  6 26 20
  3250090211801  HEAD  7 26 20
  3250090211801  HEAD  8 26 20
  3250090211801  HEAD  9 26 20
  3250090211801  HEAD  10 26 20
  3250090211801  HEAD  11 26 20
  3250090211801  HEAD  12 26 20
  3250090211801  HEAD  13 26 20
  3251090291501  HEAD  1 27 8
  3251090291501  HEAD  2 27 8
  3251090291501  HEAD  3 27 8
  3251090291501  HEAD  4 27 8
  3251090291501  HEAD  5 27 8
  3251090291501  HEAD  6 27 8
  3251090291501  HEAD  7 27 8
  3251090291501  HEAD  8 27 8
  3251090291501  HEAD  9 27 8
  3251090291501  HEAD  10 27 8
  3251090291501  HEAD  11 27 8
  3251090291501  HEAD  12 27 8
  3251090291501  HEAD  13 27 8
  3252090321601  HEAD  1 27 3
  3252090321601  HEAD  2 27 3
  3252090321601  HEAD  3 27 3
  3252090321601  HEAD  4 27 3
  3252090321601  HEAD  5 27 3
  3252090321601  HEAD  6 27 3
  3252090321601  HEAD  7 27 3
  3252090321601  HEAD  8 27 3
  3252090321601  HEAD  9 27 3
  3252090321601  HEAD  10 27 3
  3252090321601  HEAD  11 27 3
  3252090321601  HEAD  12 27 3
  3252090321601  HEAD  13 27 3
  3256090301301  HEAD  1 27 6
  3256090301301  HEAD  2 27 6
  3256090301301  HEAD  3 27 6
  3256090301301  HEAD  4 27 6
  3256090301301  HEAD  5 27 6
  3256090301301  HEAD  6 27 6
  3256090301301  HEAD  7 27 6
  3256090301301  HEAD  8 27 6
  3256090301301  HEAD  9 27 6
  3256090301301  HEAD  10 27 6
  3256090301301  HEAD  11 27 6
  3256090301301  HEAD  12 27 6
  3256090301301  HEAD  13 27 6
  3257090191501  HEAD  4 26 23
  3257090191501  HEAD  5 26 23
  3257090191501  HEAD  6 26 23
  3257090191501  HEAD  7 26 23
  3257090191501  HEAD  8 26 23
  3257090191501  HEAD  9 26 23
  3257090191501  HEAD  10 26 23
  3257090191501  HEAD  11 26 23
  3257090191501  HEAD  12 26 23
  3257090191501  HEAD  13 26 23
  3259090121001  HEAD  4 25 34
  3259090121001  HEAD  5 25 34
  3259090121001  HEAD  6 25 34
  3259090121001  HEAD  7 25 34
  3259090121001  HEAD  8 25 34
  3259090121001  HEAD  9 25 34
  3259090121001  HEAD  10 25 34
  3259090121001  HEAD  11 25 34
  3259090121001  HEAD  12 25 34
  3259090121001  HEAD  13 25 34
  3300090182401  HEAD  4 25 24
  3300090182401  HEAD  5 25 24
  3300090182401  HEAD  6 25 24
  3300090182401  HEAD  7 25 24
  3300090182401  HEAD  8 25 24
  3300090182401  HEAD  9 25 24
  3300090182401  HEAD  10 25 24
  3300090182401  HEAD  11 25 24
  3300090182401  HEAD  12 25 24
  3300090182401  HEAD  13 25 24
  3301090305601  HEAD  1 26 5
  3301090305601  HEAD  2 26 5
  3301090305601  HEAD  3 26 5
  3301090305601  HEAD  4 26 5
  3301090305601  HEAD  5 26 5
  3301090305601  HEAD  6 26 5
  3301090305601  HEAD  7 26 5
  3301090305601  HEAD  8 26 5
  3301090305601  HEAD  9 26 5
  3301090305601  HEAD  10 26 5
  3301090305601  HEAD  11 26 5
  3301090305601  HEAD  12 26 5
  3301090305601  HEAD  13 26 5
  3302090222601  HEAD  4 26 18
  3302090222601  HEAD  5 26 18
  3302090222601  HEAD  6 26 18
  3302090222601  HEAD  7 26 18
  3302090222601  HEAD  8 26 18
  3302090222601  HEAD  9 26 18
  3302090222601  HEAD  10 26 18
  3302090222601  HEAD  11 26 18
  3302090222601  HEAD  12 26 18
  3302090222601  HEAD  13 26 18
  3303090152401  HEAD  4 25 29
  3303090152401  HEAD  5 25 29
  3303090152401  HEAD  6 25 29
  3303090152401  HEAD  7 25 29
  3303090152401  HEAD  8 25 29
  3303090152401  HEAD  9 25 29
  3303090152401  HEAD  10 25 29
  3303090152401  HEAD  11 25 29
  3303090152401  HEAD  12 25 29
  3303090152401  HEAD  13 25 29
  3303090320701  HEAD  1 26 3
  3303090320701  HEAD  2 26 3
  3303090320701  HEAD  3 26 3
  3303090320701  HEAD  4 26 3
  3303090320701  HEAD  5 26 3
  3303090320701  HEAD  6 26 3
  3303090320701  HEAD  7 26 3
  3303090320701  HEAD  8 26 3
  3303090320701  HEAD  9 26 3
  3303090320701  HEAD  10 26 3
  3303090320701  HEAD  11 26 3
  3303090320701  HEAD  12 26 3
  3303090320701  HEAD  13 26 3
  3307090315801  HEAD  1 26 3
  3307090315801  HEAD  2 26 3
  3307090315801  HEAD  3 26 3
  3307090315801  HEAD  4 26 3
  3307090315801  HEAD  5 26 3
  3307090315801  HEAD  6 26 3
  3307090315801  HEAD  7 26 3
  3307090315801  HEAD  8 26 3
  3307090315801  HEAD  9 26 3
  3307090315801  HEAD  10 26 3
  3307090315801  HEAD  11 26 3
  3307090315801  HEAD  12 26 3
  3307090315801  HEAD  13 26 3
  3308090181601  HEAD  4 25 24
  3308090181601  HEAD  5 25 24
  3308090181601  HEAD  6 25 24
  3308090181601  HEAD  7 25 24
  3308090181601  HEAD  8 25 24
  3308090181601  HEAD  9 25 24
  3308090181601  HEAD  10 25 24
  3308090181601  HEAD  11 25 24
  3308090181601  HEAD  12 25 24
  3308090181601  HEAD  13 25 24
  3309090280801  HEAD  1 26 9
  3309090280801  HEAD  2 26 9
  3309090280801  HEAD  3 26 9
  3309090280801  HEAD  4 26 9
  3309090280801  HEAD  5 26 9
  3309090280801  HEAD  6 26 9
  3309090280801  HEAD  7 26 9
  3309090280801  HEAD  8 26 9
  3309090280801  HEAD  9 26 9
  3309090280801  HEAD  10 26 9
  3309090280801  HEAD  11 26 9
  3309090280801  HEAD  12 26 9
  3309090280801  HEAD  13 26 9
  3311090242601  HEAD  4 26 15
  3311090242601  HEAD  5 26 15
  3311090242601  HEAD  6 26 15
  3311090242601  HEAD  7 26 15
  3311090242601  HEAD  8 26 15
  3311090242601  HEAD  9 26 15
  3311090242601  HEAD  10 26 15
  3311090242601  HEAD  11 26 15
  3311090242601  HEAD  12 26 15
  3311090242601  HEAD  13 26 15
  3315090241901  HEAD  4 25 15
  3315090241901  HEAD  5 25 15
  3315090241901  HEAD  6 25 15
  3315090241901  HEAD  7 25 15
  3315090241901  HEAD  8 25 15
  3315090241901  HEAD  9 25 15
  3315090241901  HEAD  10 25 15
  3315090241901  HEAD  11 25 15
  3315090241901  HEAD  12 25 15
  3315090241901  HEAD  13 25 15
  3319090283501  HEAD  1 26 9
  3319090283501  HEAD  2 26 9
  3319090283501  HEAD  3 26 9
  3319090283501  HEAD  4 26 9
  3319090283501  HEAD  5 26 9
  3319090283501  HEAD  6 26 9
  3319090283501  HEAD  7 26 9
  3319090283501  HEAD  8 26 9
  3319090283501  HEAD  9 26 9
  3319090283501  HEAD  10 26 9
  3319090283501  HEAD  11 26 9
  3319090283501  HEAD  12 26 9
  3319090283501  HEAD  13 26 9
  3321090222901  HEAD  4 25 18
  3321090222901  HEAD  5 25 18
  3321090222901  HEAD  6 25 18
  3321090222901  HEAD  7 25 18
  3321090222901  HEAD  8 25 18
  3321090222901  HEAD  9 25 18
  3321090222901  HEAD  10 25 18
  3321090222901  HEAD  11 25 18
  3321090222901  HEAD  12 25 18
  3321090222901  HEAD  13 25 18
  3325090235801  HEAD  4 25 16
  3325090235801  HEAD  5 25 16
  3325090235801  HEAD  6 25 16
  3325090235801  HEAD  7 25 16
  3325090235801  HEAD  8 25 16
  3325090235801  HEAD  9 25 16
  3325090235801  HEAD  10 25 16
  3325090235801  HEAD  11 25 16
  3325090235801  HEAD  12 25 16
  3325090235801  HEAD  13 25 16
  3329090230801  HEAD  4 25 17
  3329090230801  HEAD  5 25 17
  3329090230801  HEAD  6 25 17
  3329090230801  HEAD  7 25 17
  3329090230801  HEAD  8 25 17
  3329090230801  HEAD  9 25 17
  3329090230801  HEAD  10 25 17
  3329090230801  HEAD  11 25 17
  3329090230801  HEAD  12 25 17
  3329090230801  HEAD  13 25 17
  3329090234001  HEAD  4 25 16
  3329090234001  HEAD  5 25 16
  3329090234001  HEAD  6 25 16
  3329090234001  HEAD  7 25 16
  3329090234001  HEAD  8 25 16
  3329090234001  HEAD  9 25 16
  3329090234001  HEAD  10 25 16
  3329090234001  HEAD  11 25 16
  3329090234001  HEAD  12 25 16
  3329090234001  HEAD  13 25 16
  3329090241001  HEAD  4 25 15
  3329090241001  HEAD  5 25 15
  3329090241001  HEAD  6 25 15
  3329090241001  HEAD  7 25 15
  3329090241001  HEAD  8 25 15
  3329090241001  HEAD  9 25 15
  3329090241001  HEAD  10 25 15
  3329090241001  HEAD  11 25 15
  3329090241001  HEAD  12 25 15
  3329090241001  HEAD  13 25 15
  3329090402701  HEAD  1 25 13
  3329090402701  HEAD  2 25 13
  3329090402701  HEAD  3 25 13
  3329090402701  HEAD  4 25 13
  3329090402701  HEAD  5 25 13
  3329090402701  HEAD  6 25 13
  3329090402701  HEAD  7 25 13
  3329090402701  HEAD  8 25 13
  3329090402701  HEAD  9 25 13
  3329090402701  HEAD  10 25 13
  3329090402701  HEAD  11 25 13
  3329090402701  HEAD  12 25 13
  3329090402701  HEAD  13 25 13
  3330090313801  HEAD  1 26 4
  3330090313801  HEAD  2 26 4
  3330090313801  HEAD  3 26 4
  3330090313801  HEAD  4 26 4
  3330090313801  HEAD  5 26 4
  3330090313801  HEAD  6 26 4
  3330090313801  HEAD  7 26 4
  3330090313801  HEAD  8 26 4
  3330090313801  HEAD  9 26 4
  3330090313801  HEAD  10 26 4
  3330090313801  HEAD  11 26 4
  3330090313801  HEAD  12 26 4
  3330090313801  HEAD  13 26 4
  3332090145001  HEAD  4 24 30
  3332090145001  HEAD  5 24 30
  3332090145001  HEAD  6 24 30
  3332090145001  HEAD  7 24 30
  3332090145001  HEAD  8 24 30
  3332090145001  HEAD  9 24 30
  3332090145001  HEAD  10 24 30
  3332090145001  HEAD  11 24 30
  3332090145001  HEAD  12 24 30
  3332090145001  HEAD  13 24 30
  3332090254201  HEAD  1 25 13
  3332090254201  HEAD  2 25 13
  3332090254201  HEAD  3 25 13
  3332090254201  HEAD  4 25 13
  3332090254201  HEAD  5 25 13
  3332090254201  HEAD  6 25 13
  3332090254201  HEAD  7 25 13
  3332090254201  HEAD  8 25 13
  3332090254201  HEAD  9 25 13
  3332090254201  HEAD  10 25 13
  3332090254201  HEAD  11 25 13
  3332090254201  HEAD  12 25 13
  3332090254201  HEAD  13 25 13
  3335090310201  HEAD  1 25 5
  3335090310201  HEAD  2 25 5
  3335090310201  HEAD  3 25 5
  3335090310201  HEAD  4 25 5
  3335090310201  HEAD  5 25 5
  3335090310201  HEAD  6 25 5
  3335090310201  HEAD  7 25 5
  3335090310201  HEAD  8 25 5
  3335090310201  HEAD  9 25 5
  3335090310201  HEAD  10 25 5
  3335090310201  HEAD  11 25 5
  3335090310201  HEAD  12 25 5
  3335090310201  HEAD  13 25 5
  3337090251901  HEAD  4 25 14
  3337090251901  HEAD  5 25 14
  3337090251901  HEAD  6 25 14
  3337090251901  HEAD  7 25 14
  3337090251901  HEAD  8 25 14
  3337090251901  HEAD  9 25 14
  3337090251901  HEAD  10 25 14
  3337090251901  HEAD  11 25 14
  3337090251901  HEAD  12 25 14
  3337090251901  HEAD  13 25 14
  3337090304001  HEAD  1 25 5
  3337090304001  HEAD  2 25 5
  3337090304001  HEAD  3 25 5
  3337090304001  HEAD  4 25 5
  3337090304001  HEAD  5 25 5
  3337090304001  HEAD  6 25 5
  3337090304001  HEAD  7 25 5
  3337090304001  HEAD  8 25 5
  3337090304001  HEAD  9 25 5
  3337090304001  HEAD  10 25 5
  3337090304001  HEAD  11 25 5
  3337090304001  HEAD  12 25 5
  3337090304001  HEAD  13 25 5
  3342090223201  HEAD  4 24 19
  3342090223201  HEAD  5 24 19
  3342090223201  HEAD  6 24 19
  3342090223201  HEAD  7 24 19
  3342090223201  HEAD  8 24 19
  3342090223201  HEAD  9 24 19
  3342090223201  HEAD  10 24 19
  3342090223201  HEAD  11 24 19
  3342090223201  HEAD  12 24 19
  3342090223201  HEAD  13 24 19
  3342090232401  HEAD  4 25 17
  3342090232401  HEAD  5 25 17
  3342090232401  HEAD  6 25 17
  3342090232401  HEAD  7 25 17
  3342090232401  HEAD  8 25 17
  3342090232401  HEAD  9 25 17
  3342090232401  HEAD  10 25 17
  3342090232401  HEAD  11 25 17
  3342090232401  HEAD  12 25 17
  3342090232401  HEAD  13 25 17
  3342090321001  HEAD  1 25 3
  3342090321001  HEAD  2 25 3
  3342090321001  HEAD  3 25 3
  3342090321001  HEAD  4 25 3
  3342090321001  HEAD  5 25 3
  3342090321001  HEAD  6 25 3
  3342090321001  HEAD  7 25 3
  3342090321001  HEAD  8 25 3
  3342090321001  HEAD  9 25 3
  3342090321001  HEAD  10 25 3
  3342090321001  HEAD  11 25 3
  3342090321001  HEAD  12 25 3
  3342090321001  HEAD  13 25 3
  3345090252801  HEAD  1 25 13
  3345090252801  HEAD  2 25 13
  3345090252801  HEAD  3 25 13
  3345090252801  HEAD  4 25 13
  3345090252801  HEAD  5 25 13
  3345090252801  HEAD  6 25 13
  3345090252801  HEAD  7 25 13
  3345090252801  HEAD  8 25 13
  3345090252801  HEAD  9 25 13
  3345090252801  HEAD  10 25 13
  3345090252801  HEAD  11 25 13
  3345090252801  HEAD  12 25 13
  3345090252801  HEAD  13 25 13
  3345090271601  HEAD  1 25 11
  3345090271601  HEAD  2 25 11
  3345090271601  HEAD  3 25 11
  3345090271601  HEAD  4 25 11
  3345090271601  HEAD  5 25 11
  3345090271601  HEAD  6 25 11
  3345090271601  HEAD  7 25 11
  3345090271601  HEAD  8 25 11
  3345090271601  HEAD  9 25 11
  3345090271601  HEAD  10 25 11
  3345090271601  HEAD  11 25 11
  3345090271601  HEAD  12 25 11
  3345090271601  HEAD  13 25 11
  3346090255901  HEAD  1 25 13
  3346090255901  HEAD  2 25 13
  3346090255901  HEAD  3 25 13
  3346090255901  HEAD  4 25 13
  3346090255901  HEAD  5 25 13
  3346090255901  HEAD  6 25 13
  3346090255901  HEAD  7 25 13
  3346090255901  HEAD  8 25 13
  3346090255901  HEAD  9 25 13
  3346090255901  HEAD  10 25 13
  3346090255901  HEAD  11 25 13
  3346090255901  HEAD  12 25 13
  3346090255901  HEAD  13 25 13
  3346090320401  HEAD  1 25 3
  3346090320401  HEAD  2 25 3
  3346090320401  HEAD  3 25 3
  3346090320401  HEAD  4 25 3
  3346090320401  HEAD  5 25 3
  3346090320401  HEAD  6 25 3
  3346090320401  HEAD  7 25 3
  3346090320401  HEAD  8 25 3
  3346090320401  HEAD  9 25 3
  3346090320401  HEAD  10 25 3
  3346090320401  HEAD  11 25 3
  3346090320401  HEAD  12 25 3
  3346090320401  HEAD  13 25 3
  3347090222801  HEAD  4 24 18
  3347090222801  HEAD  5 24 18
  3347090222801  HEAD  6 24 18
  3347090222801  HEAD  7 24 18
  3347090222801  HEAD  8 24 18
  3347090222801  HEAD  9 24 18
  3347090222801  HEAD  10 24 18
  3347090222801  HEAD  11 24 18
  3347090222801  HEAD  12 24 18
  3347090222801  HEAD  13 24 18
  3348090185201  HEAD  4 24 23
  3348090185201  HEAD  5 24 23
  3348090185201  HEAD  6 24 23
  3348090185201  HEAD  7 24 23
  3348090185201  HEAD  8 24 23
  3348090185201  HEAD  9 24 23
  3348090185201  HEAD  10 24 23
  3348090185201  HEAD  11 24 23
  3348090185201  HEAD  12 24 23
  3348090185201  HEAD  13 24 23
  3348090202701  HEAD  4 24 21
  3348090202701  HEAD  5 24 21
  3348090202701  HEAD  6 24 21
  3348090202701  HEAD  7 24 21
  3348090202701  HEAD  8 24 21
  3348090202701  HEAD  9 24 21
  3348090202701  HEAD  10 24 21
  3348090202701  HEAD  11 24 21
  3348090202701  HEAD  12 24 21
  3348090202701  HEAD  13 24 21
  3348090311801  HEAD  1 25 4
  3348090311801  HEAD  2 25 4
  3348090311801  HEAD  3 25 4
  3348090311801  HEAD  4 25 4
  3348090311801  HEAD  5 25 4
  3348090311801  HEAD  6 25 4
  3348090311801  HEAD  7 25 4
  3348090311801  HEAD  8 25 4
  3348090311801  HEAD  9 25 4
  3348090311801  HEAD  10 25 4
  3348090311801  HEAD  11 25 4
  3348090311801  HEAD  12 25 4
  3348090311801  HEAD  13 25 4
  3351090291401  HEAD  1 25 8
  3351090291401  HEAD  2 25 8
  3351090291401  HEAD  3 25 8
  3351090291401  HEAD  4 25 8
  3351090291401  HEAD  5 25 8
  3351090291401  HEAD  6 25 8
  3351090291401  HEAD  7 25 8
  3351090291401  HEAD  8 25 8
  3351090291401  HEAD  9 25 8
  3351090291401  HEAD  10 25 8
  3351090291401  HEAD  11 25 8
  3351090291401  HEAD  12 25 8
  3351090291401  HEAD  13 25 8
  3352090294001  HEAD  1 25 7
  3352090294001  HEAD  2 25 7
  3352090294001  HEAD  3 25 7
  3352090294001  HEAD  4 25 7
  3352090294001  HEAD  5 25 7
  3352090294001  HEAD  6 25 7
  3352090294001  HEAD  7 25 7
  3352090294001  HEAD  8 25 7
  3352090294001  HEAD  9 25 7
  3352090294001  HEAD  10 25 7
  3352090294001  HEAD  11 25 7
  3352090294001  HEAD  12 25 7
  3352090294001  HEAD  13 25 7
  3354090265001  HEAD  1 24 11
  3354090265001  HEAD  2 24 11
  3354090265001  HEAD  3 24 11
  3354090265001  HEAD  4 24 11
  3354090265001  HEAD  5 24 11