# NWT package for  MODFLOW-NWT, generated by Flopy.
 1.000e-02 6.000e+03      1000 1.000e-05         2         1         1 SPECIFIED  CONTINUE       0.9     1e-05         0         0         0
         2         0         7         0         0         0         1      0.01    0.0001        85
