# RCH package for  MODFLOW-NWT, generated by Flopy.
         3        53
         1        -1 # Stress period 1
OPEN/CLOSE              external/finf0.dat               1     (FREE) -1 rech_1                        
         1        -1 # Stress period 2
OPEN/CLOSE              external/finf1.dat               1     (FREE) -1 rech_2                        
         1        -1 # Stress period 3
OPEN/CLOSE              external/finf2.dat               1     (FREE) -1 rech_3                        
         1        -1 # Stress period 4
OPEN/CLOSE              external/finf3.dat               1     (FREE) -1 rech_4                        
         1        -1 # Stress period 5
OPEN/CLOSE              external/finf4.dat               1     (FREE) -1 rech_5                        
         1        -1 # Stress period 6
OPEN/CLOSE              external/finf5.dat               1     (FREE) -1 rech_6                        
         1        -1 # Stress period 7
OPEN/CLOSE              external/finf6.dat               1     (FREE) -1 rech_7                        
         1        -1 # Stress period 8
OPEN/CLOSE              external/finf7.dat               1     (FREE) -1 rech_8                        
         1        -1 # Stress period 9
OPEN/CLOSE              external/finf8.dat               1     (FREE) -1 rech_9                        
         1        -1 # Stress period 10
OPEN/CLOSE              external/finf9.dat               1     (FREE) -1 rech_10                       
         1        -1 # Stress period 11
OPEN/CLOSE             external/finf10.dat               1     (FREE) -1 rech_11                       
         1        -1 # Stress period 12
OPEN/CLOSE             external/finf11.dat               1     (FREE) -1 rech_12                       
         1        -1 # Stress period 13
OPEN/CLOSE             external/finf12.dat               1     (FREE) -1 rech_13                       
