# SFR package for  MODFLOW-NWT, generated by Flopy.
-42 2 0 0 86400.00000000 0.00010000 0 223 1 0 
1 17 23 1 1 37.851482 296.5768 0.018526053 1.0 1.0
1 16 23 1 2 61.818787 296.5768 0.031852346 1.0 1.0
1 16 24 1 3 218.05473 296.5768 0.014767265 1.0 1.0
1 16 25 1 4 239.62903 295.90256 0.013233485 1.0 1.0
1 16 26 1 5 211.09784 294.8395 0.013425529 1.0 1.0
1 16 27 1 6 191.72588 293.9044 0.00754478 1.0 1.0
1 17 27 1 7 13.876072 293.86606 0.11823422 1.0 1.0
1 17 28 1 8 219.31369 292.74695 0.013541732 1.0 1.0
1 17 29 1 9 202.81001 291.67682 0.014025165 1.0 1.0
1 17 30 1 10 201.48373 290.61316 0.014225321 1.0 1.0
1 17 31 1 11 205.89838 289.26352 0.014007052 1.0 1.0
1 17 32 1 12 204.02185 287.79428 0.010025246 1.0 1.0
1 17 33 1 13 86.69582 286.9854 0.017608985 1.0 1.0
1 16 33 1 14 130.29083 286.16852 0.018767709 1.0 1.0
1 16 34 1 15 217.26543 284.72263 0.013798981 1.0 1.0
1 16 35 1 16 208.85962 283.41187 0.015298706 1.0 1.0
1 16 36 1 17 245.30054 282.16647 0.001 1.0 1.0
3 24 21 2 1 70.6484 290.17783 0.00684242 1.0 1.0
4 25 21 2 2 55.786373 290.17783 0.01918438 1.0 1.0
4 25 22 2 3 224.13133 290.17783 0.0073028514 1.0 1.0
4 26 22 2 4 203.97282 290.17783 0.006502565 1.0 1.0
4 27 22 2 5 142.93286 290.17783 0.005699943 1.0 1.0
4 27 23 2 6 70.1542 290.17783 0.017470138 1.0 1.0
4 28 23 2 7 250.40224 290.17783 0.0063927667 1.0 1.0
4 28 24 2 8 168.27725 290.17783 0.0052911085 1.0 1.0
4 29 24 2 9 64.599625 290.17783 0.014885841 1.0 1.0
4 29 25 2 10 186.91173 289.29153 0.010067192 1.0 1.0
3 30 25 2 11 305.24066 288.64615 0.0063469536 1.0 1.0
2 30 26 2 12 201.47238 288.19803 0.008081324 1.0 1.0
2 30 27 2 13 224.37366 287.63553 0.0074131107 1.0 1.0
2 30 28 2 14 210.66438 287.21384 0.007890238 1.0 1.0
2 30 29 2 15 224.08124 286.7464 0.004621519 1.0 1.0
2 31 29 2 16 46.77849 286.6316 0.023220496 1.0 1.0
1 31 30 2 17 237.32225 286.07956 0.005116831 1.0 1.0
1 31 31 2 18 80.287254 285.91348 0.010471469 1.0 1.0
1 32 31 2 19 139.60445 285.59357 0.009344115 1.0 1.0
1 32 32 2 20 201.58203 285.15033 0.0076637114 1.0 1.0
1 32 33 2 21 202.4775 284.6747 0.0055190544 1.0 1.0
1 32 34 2 22 89.8003 284.51962 0.009814749 1.0 1.0
1 31 34 2 23 140.7212 284.17236 0.0095158685 1.0 1.0
1 31 35 2 24 209.51614 283.65045 0.007622908 1.0 1.0
1 31 36 2 25 208.21101 283.30362 0.001 1.0 1.0
2 0 0
1 1 0 0 0 0 0 0 0.037 
1.0 
4.5113745 
2 1 0 0 0 0 0 0 0.037 
1.0 
4.037363 
-2 0 0
-2 0 0
-2 0 0
-2 0 0
-2 0 0
-2 0 0
-2 0 0
-2 0 0
-2 0 0
-2 0 0
-2 0 0
-2 0 0
