# Name file for MODFLOW-NWT, generated by Flopy version 3.3.1.
#xll:552200.0; yll:387000.0; rotation:0.0; proj4_str:epsg:3070; units:meters; lenuni:2; start_datetime:1-1-1970
LIST               2  pleasant.list
DIS               11  pleasant.dis
BAS6              13  pleasant.bas
UPW               31  pleasant.upw
RCH               19  pleasant.rch
OC                14  pleasant.oc
SFR               17  pleasant.sfr
WEL               20  pleasant.wel
NWT               32  pleasant.nwt
CHD               24  pleasant.chd
DATA(BINARY)      53  pleasant.cbc REPLACE
DATA(BINARY)      51  pleasant.hds REPLACE
DATA             223  pleasant.sfr.out
