# CHD package for  MODFLOW-NWT, generated by Flopy.
       544
       544         0 # stress period 1
         open/close external/CHD_0000.dat
       544         0 # stress period 2
         open/close external/CHD_0001.dat
       544         0 # stress period 3
         open/close external/CHD_0002.dat
       544         0 # stress period 4
         open/close external/CHD_0003.dat
       544         0 # stress period 5
         open/close external/CHD_0004.dat
       544         0 # stress period 6
         open/close external/CHD_0005.dat
       544         0 # stress period 7
         open/close external/CHD_0006.dat
       544         0 # stress period 8
         open/close external/CHD_0007.dat
       544         0 # stress period 9
         open/close external/CHD_0008.dat
       544         0 # stress period 10
         open/close external/CHD_0009.dat
       544         0 # stress period 11
         open/close external/CHD_0010.dat
       544         0 # stress period 12
         open/close external/CHD_0011.dat
       544         0 # stress period 13
         open/close external/CHD_0012.dat
       544         0 # stress period 14
         open/close external/CHD_0013.dat
       544         0 # stress period 15
         open/close external/CHD_0014.dat
       544         0 # stress period 16
         open/close external/CHD_0015.dat
       544         0 # stress period 17
         open/close external/CHD_0016.dat
       544         0 # stress period 18
         open/close external/CHD_0017.dat
       544         0 # stress period 19
         open/close external/CHD_0018.dat
       544         0 # stress period 20
         open/close external/CHD_0019.dat
       544         0 # stress period 21
         open/close external/CHD_0020.dat
       544         0 # stress period 22
         open/close external/CHD_0021.dat
       544         0 # stress period 23
         open/close external/CHD_0022.dat
       544         0 # stress period 24
         open/close external/CHD_0023.dat
       544         0 # stress period 25
         open/close external/CHD_0024.dat
       544         0 # stress period 26
         open/close external/CHD_0025.dat
       544         0 # stress period 27
         open/close external/CHD_0026.dat
       544         0 # stress period 28
         open/close external/CHD_0027.dat
       544         0 # stress period 29
         open/close external/CHD_0028.dat
       544         0 # stress period 30
         open/close external/CHD_0029.dat
       544         0 # stress period 31
         open/close external/CHD_0030.dat
       544         0 # stress period 32
         open/close external/CHD_0031.dat
       544         0 # stress period 33
         open/close external/CHD_0032.dat
       544         0 # stress period 34
         open/close external/CHD_0033.dat
       544         0 # stress period 35
         open/close external/CHD_0034.dat
       544         0 # stress period 36
         open/close external/CHD_0035.dat
       544         0 # stress period 37
         open/close external/CHD_0036.dat
       544         0 # stress period 38
         open/close external/CHD_0037.dat
       544         0 # stress period 39
         open/close external/CHD_0038.dat
       544         0 # stress period 40
         open/close external/CHD_0039.dat
       544         0 # stress period 41
         open/close external/CHD_0040.dat
       544         0 # stress period 42
         open/close external/CHD_0041.dat
       544         0 # stress period 43
         open/close external/CHD_0042.dat
       544         0 # stress period 44
         open/close external/CHD_0043.dat
       544         0 # stress period 45
         open/close external/CHD_0044.dat
       544         0 # stress period 46
         open/close external/CHD_0045.dat
       544         0 # stress period 47
         open/close external/CHD_0046.dat
       544         0 # stress period 48
         open/close external/CHD_0047.dat
       544         0 # stress period 49
         open/close external/CHD_0048.dat
       544         0 # stress period 50
         open/close external/CHD_0049.dat
       544         0 # stress period 51
         open/close external/CHD_0050.dat
       544         0 # stress period 52
         open/close external/CHD_0051.dat
       544         0 # stress period 53
         open/close external/CHD_0052.dat
       544         0 # stress period 54
         open/close external/CHD_0053.dat
       544         0 # stress period 55
         open/close external/CHD_0054.dat
       544         0 # stress period 56
         open/close external/CHD_0055.dat
       544         0 # stress period 57
         open/close external/CHD_0056.dat
       544         0 # stress period 58
         open/close external/CHD_0057.dat
       544         0 # stress period 59
         open/close external/CHD_0058.dat
       544         0 # stress period 60
         open/close external/CHD_0059.dat
       544         0 # stress period 61
         open/close external/CHD_0060.dat
       544         0 # stress period 62
         open/close external/CHD_0061.dat
       544         0 # stress period 63
         open/close external/CHD_0062.dat
       544         0 # stress period 64
         open/close external/CHD_0063.dat
       544         0 # stress period 65
         open/close external/CHD_0064.dat
       544         0 # stress period 66
         open/close external/CHD_0065.dat
       544         0 # stress period 67
         open/close external/CHD_0066.dat
       544         0 # stress period 68
         open/close external/CHD_0067.dat
       544         0 # stress period 69
         open/close external/CHD_0068.dat
       544         0 # stress period 70
         open/close external/CHD_0069.dat
       544         0 # stress period 71
         open/close external/CHD_0070.dat
       544         0 # stress period 72
         open/close external/CHD_0071.dat
       544         0 # stress period 73
         open/close external/CHD_0072.dat
       544         0 # stress period 74
         open/close external/CHD_0073.dat
       544         0 # stress period 75
         open/close external/CHD_0074.dat
       544         0 # stress period 76
         open/close external/CHD_0075.dat
       544         0 # stress period 77
         open/close external/CHD_0076.dat
       544         0 # stress period 78
         open/close external/CHD_0077.dat
       544         0 # stress period 79
         open/close external/CHD_0078.dat
       544         0 # stress period 80
         open/close external/CHD_0079.dat
       544         0 # stress period 81
         open/close external/CHD_0080.dat
       544         0 # stress period 82
         open/close external/CHD_0081.dat
       544         0 # stress period 83
         open/close external/CHD_0082.dat
       544         0 # stress period 84
         open/close external/CHD_0083.dat
       544         0 # stress period 85
         open/close external/CHD_0084.dat
