# RCH package for  MODFLOW-NWT, generated by Flopy.
         3        53
         1        -1 # Stress period 1
OPEN/CLOSE              external/finf0.dat               1     (FREE) -1 rech_1                        
         1        -1 # Stress period 2
OPEN/CLOSE              external/finf1.dat               1     (FREE) -1 rech_2                        
         1        -1 # Stress period 3
OPEN/CLOSE              external/finf2.dat               1     (FREE) -1 rech_3                        
         1        -1 # Stress period 4
OPEN/CLOSE              external/finf3.dat               1     (FREE) -1 rech_4                        
         1        -1 # Stress period 5
OPEN/CLOSE              external/finf4.dat               1     (FREE) -1 rech_5                        
         1        -1 # Stress period 6
OPEN/CLOSE              external/finf5.dat               1     (FREE) -1 rech_6                        
         1        -1 # Stress period 7
OPEN/CLOSE              external/finf6.dat               1     (FREE) -1 rech_7                        
         1        -1 # Stress period 8
OPEN/CLOSE              external/finf7.dat               1     (FREE) -1 rech_8                        
         1        -1 # Stress period 9
OPEN/CLOSE              external/finf8.dat               1     (FREE) -1 rech_9                        
         1        -1 # Stress period 10
OPEN/CLOSE              external/finf9.dat               1     (FREE) -1 rech_10                       
         1        -1 # Stress period 11
OPEN/CLOSE             external/finf10.dat               1     (FREE) -1 rech_11                       
         1        -1 # Stress period 12
OPEN/CLOSE             external/finf11.dat               1     (FREE) -1 rech_12                       
         1        -1 # Stress period 13
OPEN/CLOSE             external/finf12.dat               1     (FREE) -1 rech_13                       
         1        -1 # Stress period 14
OPEN/CLOSE             external/finf13.dat               1     (FREE) -1 rech_14                       
         1        -1 # Stress period 15
OPEN/CLOSE             external/finf14.dat               1     (FREE) -1 rech_15                       
         1        -1 # Stress period 16
OPEN/CLOSE             external/finf15.dat               1     (FREE) -1 rech_16                       
         1        -1 # Stress period 17
OPEN/CLOSE             external/finf16.dat               1     (FREE) -1 rech_17                       
         1        -1 # Stress period 18
OPEN/CLOSE             external/finf17.dat               1     (FREE) -1 rech_18                       
         1        -1 # Stress period 19
OPEN/CLOSE             external/finf18.dat               1     (FREE) -1 rech_19                       
         1        -1 # Stress period 20
OPEN/CLOSE             external/finf19.dat               1     (FREE) -1 rech_20                       
         1        -1 # Stress period 21
OPEN/CLOSE             external/finf20.dat               1     (FREE) -1 rech_21                       
         1        -1 # Stress period 22
OPEN/CLOSE             external/finf21.dat               1     (FREE) -1 rech_22                       
         1        -1 # Stress period 23
OPEN/CLOSE             external/finf22.dat               1     (FREE) -1 rech_23                       
         1        -1 # Stress period 24
OPEN/CLOSE             external/finf23.dat               1     (FREE) -1 rech_24                       
         1        -1 # Stress period 25
OPEN/CLOSE             external/finf24.dat               1     (FREE) -1 rech_25                       
         1        -1 # Stress period 26
OPEN/CLOSE             external/finf25.dat               1     (FREE) -1 rech_26                       
         1        -1 # Stress period 27
OPEN/CLOSE             external/finf26.dat               1     (FREE) -1 rech_27                       
         1        -1 # Stress period 28
OPEN/CLOSE             external/finf27.dat               1     (FREE) -1 rech_28                       
         1        -1 # Stress period 29
OPEN/CLOSE             external/finf28.dat               1     (FREE) -1 rech_29                       
         1        -1 # Stress period 30
OPEN/CLOSE             external/finf29.dat               1     (FREE) -1 rech_30                       
         1        -1 # Stress period 31
OPEN/CLOSE             external/finf30.dat               1     (FREE) -1 rech_31                       
         1        -1 # Stress period 32
OPEN/CLOSE             external/finf31.dat               1     (FREE) -1 rech_32                       
         1        -1 # Stress period 33
OPEN/CLOSE             external/finf32.dat               1     (FREE) -1 rech_33                       
         1        -1 # Stress period 34
OPEN/CLOSE             external/finf33.dat               1     (FREE) -1 rech_34                       
         1        -1 # Stress period 35
OPEN/CLOSE             external/finf34.dat               1     (FREE) -1 rech_35                       
         1        -1 # Stress period 36
OPEN/CLOSE             external/finf35.dat               1     (FREE) -1 rech_36                       
         1        -1 # Stress period 37
OPEN/CLOSE             external/finf36.dat               1     (FREE) -1 rech_37                       
         1        -1 # Stress period 38
OPEN/CLOSE             external/finf37.dat               1     (FREE) -1 rech_38                       
         1        -1 # Stress period 39
OPEN/CLOSE             external/finf38.dat               1     (FREE) -1 rech_39                       
         1        -1 # Stress period 40
OPEN/CLOSE             external/finf39.dat               1     (FREE) -1 rech_40                       
         1        -1 # Stress period 41
OPEN/CLOSE             external/finf40.dat               1     (FREE) -1 rech_41                       
         1        -1 # Stress period 42
OPEN/CLOSE             external/finf41.dat               1     (FREE) -1 rech_42                       
         1        -1 # Stress period 43
OPEN/CLOSE             external/finf42.dat               1     (FREE) -1 rech_43                       
         1        -1 # Stress period 44
OPEN/CLOSE             external/finf43.dat               1     (FREE) -1 rech_44                       
         1        -1 # Stress period 45
OPEN/CLOSE             external/finf44.dat               1     (FREE) -1 rech_45                       
         1        -1 # Stress period 46
OPEN/CLOSE             external/finf45.dat               1     (FREE) -1 rech_46                       
         1        -1 # Stress period 47
OPEN/CLOSE             external/finf46.dat               1     (FREE) -1 rech_47                       
         1        -1 # Stress period 48
OPEN/CLOSE             external/finf47.dat               1     (FREE) -1 rech_48                       
         1        -1 # Stress period 49
OPEN/CLOSE             external/finf48.dat               1     (FREE) -1 rech_49                       
         1        -1 # Stress period 50
OPEN/CLOSE             external/finf49.dat               1     (FREE) -1 rech_50                       
         1        -1 # Stress period 51
OPEN/CLOSE             external/finf50.dat               1     (FREE) -1 rech_51                       
         1        -1 # Stress period 52
OPEN/CLOSE             external/finf51.dat               1     (FREE) -1 rech_52                       
         1        -1 # Stress period 53
OPEN/CLOSE             external/finf52.dat               1     (FREE) -1 rech_53                       
         1        -1 # Stress period 54
OPEN/CLOSE             external/finf53.dat               1     (FREE) -1 rech_54                       
         1        -1 # Stress period 55
OPEN/CLOSE             external/finf54.dat               1     (FREE) -1 rech_55                       
         1        -1 # Stress period 56
OPEN/CLOSE             external/finf55.dat               1     (FREE) -1 rech_56                       
         1        -1 # Stress period 57
OPEN/CLOSE             external/finf56.dat               1     (FREE) -1 rech_57                       
         1        -1 # Stress period 58
OPEN/CLOSE             external/finf57.dat               1     (FREE) -1 rech_58                       
         1        -1 # Stress period 59
OPEN/CLOSE             external/finf58.dat               1     (FREE) -1 rech_59                       
         1        -1 # Stress period 60
OPEN/CLOSE             external/finf59.dat               1     (FREE) -1 rech_60                       
         1        -1 # Stress period 61
OPEN/CLOSE             external/finf60.dat               1     (FREE) -1 rech_61                       
         1        -1 # Stress period 62
OPEN/CLOSE             external/finf61.dat               1     (FREE) -1 rech_62                       
         1        -1 # Stress period 63
OPEN/CLOSE             external/finf62.dat               1     (FREE) -1 rech_63                       
         1        -1 # Stress period 64
OPEN/CLOSE             external/finf63.dat               1     (FREE) -1 rech_64                       
         1        -1 # Stress period 65
OPEN/CLOSE             external/finf64.dat               1     (FREE) -1 rech_65                       
         1        -1 # Stress period 66
OPEN/CLOSE             external/finf65.dat               1     (FREE) -1 rech_66                       
         1        -1 # Stress period 67
OPEN/CLOSE             external/finf66.dat               1     (FREE) -1 rech_67                       
         1        -1 # Stress period 68
OPEN/CLOSE             external/finf67.dat               1     (FREE) -1 rech_68                       
         1        -1 # Stress period 69
OPEN/CLOSE             external/finf68.dat               1     (FREE) -1 rech_69                       
         1        -1 # Stress period 70
OPEN/CLOSE             external/finf69.dat               1     (FREE) -1 rech_70                       
         1        -1 # Stress period 71
OPEN/CLOSE             external/finf70.dat               1     (FREE) -1 rech_71                       
         1        -1 # Stress period 72
OPEN/CLOSE             external/finf71.dat               1     (FREE) -1 rech_72                       
         1        -1 # Stress period 73
OPEN/CLOSE             external/finf72.dat               1     (FREE) -1 rech_73                       
         1        -1 # Stress period 74
OPEN/CLOSE             external/finf73.dat               1     (FREE) -1 rech_74                       
         1        -1 # Stress period 75
OPEN/CLOSE             external/finf74.dat               1     (FREE) -1 rech_75                       
         1        -1 # Stress period 76
OPEN/CLOSE             external/finf75.dat               1     (FREE) -1 rech_76                       
         1        -1 # Stress period 77
OPEN/CLOSE             external/finf76.dat               1     (FREE) -1 rech_77                       
         1        -1 # Stress period 78
OPEN/CLOSE             external/finf77.dat               1     (FREE) -1 rech_78                       
         1        -1 # Stress period 79
OPEN/CLOSE             external/finf78.dat               1     (FREE) -1 rech_79                       
         1        -1 # Stress period 80
OPEN/CLOSE             external/finf79.dat               1     (FREE) -1 rech_80                       
         1        -1 # Stress period 81
OPEN/CLOSE             external/finf80.dat               1     (FREE) -1 rech_81                       
         1        -1 # Stress period 82
OPEN/CLOSE             external/finf81.dat               1     (FREE) -1 rech_82                       
         1        -1 # Stress period 83
OPEN/CLOSE             external/finf82.dat               1     (FREE) -1 rech_83                       
         1        -1 # Stress period 84
OPEN/CLOSE             external/finf83.dat               1     (FREE) -1 rech_84                       
         1        -1 # Stress period 85
OPEN/CLOSE             external/finf84.dat               1     (FREE) -1 rech_85                       
