# CHD package for  MODFLOW-NWT, generated by Flopy.
       544
       544         0 # stress period 1
         open/close external/CHD_0000.dat
       544         0 # stress period 2
         open/close external/CHD_0001.dat
       544         0 # stress period 3
         open/close external/CHD_0002.dat
       544         0 # stress period 4
         open/close external/CHD_0003.dat
       544         0 # stress period 5
         open/close external/CHD_0004.dat
       544         0 # stress period 6
         open/close external/CHD_0005.dat
       544         0 # stress period 7
         open/close external/CHD_0006.dat
       544         0 # stress period 8
         open/close external/CHD_0007.dat
       544         0 # stress period 9
         open/close external/CHD_0008.dat
       544         0 # stress period 10
         open/close external/CHD_0009.dat
       544         0 # stress period 11
         open/close external/CHD_0010.dat
       544         0 # stress period 12
         open/close external/CHD_0011.dat
       544         0 # stress period 13
         open/close external/CHD_0012.dat
